                                  MODFLOW-2005     
      U.S. GEOLOGICAL SURVEY MODULAR FINITE-DIFFERENCE GROUND-WATER FLOW MODEL
                            VERSION 1.12.00 x/x/2015

 LIST FILE: swiex4_s1.list
                         UNIT    2

 OPENING swiex4_s1.dis
 FILE TYPE:DIS   UNIT   11   STATUS:OLD    
 FORMAT:FORMATTED              ACCESS:SEQUENTIAL          

 OPENING swiex4_s1.bas
 FILE TYPE:BAS6   UNIT   13   STATUS:OLD    
 FORMAT:FORMATTED              ACCESS:SEQUENTIAL          

 OPENING swiex4_s1.lpf
 FILE TYPE:LPF   UNIT   15   STATUS:OLD    
 FORMAT:FORMATTED              ACCESS:SEQUENTIAL          

 OPENING swiex4_s1.wel
 FILE TYPE:WEL   UNIT   20   STATUS:OLD    
 FORMAT:FORMATTED              ACCESS:SEQUENTIAL          

 OPENING swiex4_s1.ghb
 FILE TYPE:GHB   UNIT   23   STATUS:OLD    
 FORMAT:FORMATTED              ACCESS:SEQUENTIAL          

 OPENING swiex4_s1.rch
 FILE TYPE:RCH   UNIT   19   STATUS:OLD    
 FORMAT:FORMATTED              ACCESS:SEQUENTIAL          

 OPENING swiex4_s1.swi2
 FILE TYPE:SWI2   UNIT   29   STATUS:OLD    
 FORMAT:FORMATTED              ACCESS:SEQUENTIAL          

 OPENING swiex4_s1.zta
 FILE TYPE:DATA(BINARY)   UNIT   55   STATUS:REPLACE
 FORMAT:UNFORMATTED            ACCESS:STREAM              

 OPENING swiex4_s1.zobs
 FILE TYPE:DATA   UNIT 1051   STATUS:REPLACE
 FORMAT:FORMATTED              ACCESS:SEQUENTIAL          

 OPENING swiex4_s1.oc
 FILE TYPE:OC   UNIT   14   STATUS:OLD    
 FORMAT:FORMATTED              ACCESS:SEQUENTIAL          

 OPENING swiex4_s1.hds
 FILE TYPE:DATA(BINARY)   UNIT   51   STATUS:REPLACE
 FORMAT:UNFORMATTED            ACCESS:STREAM              

 OPENING swiex4_s1.ddn
 FILE TYPE:DATA(BINARY)   UNIT   52   STATUS:REPLACE
 FORMAT:UNFORMATTED            ACCESS:STREAM              

 OPENING swiex4_s1.cbc
 FILE TYPE:DATA(BINARY)   UNIT   53   STATUS:REPLACE
 FORMAT:UNFORMATTED            ACCESS:STREAM              

 OPENING swiex4_s1.pcg
 FILE TYPE:PCG   UNIT   27   STATUS:OLD    
 FORMAT:FORMATTED              ACCESS:SEQUENTIAL          

 BAS -- BASIC PACKAGE, VERSION 7, 5/2/2005 INPUT READ FROM UNIT   13

 MODFLOW was compiled using mixed precision
 Precision of REAL variables:           6
 Precision of DOUBLE PRECISION variables:          15

 DISCRETIZATION INPUT DATA READ FROM UNIT   11
 # Discretization file for MODFLOW, generated by Flopy.
    2 LAYERS        61 ROWS        61 COLUMNS
    3 STRESS PERIOD(S) IN SIMULATION
 MODEL TIME UNIT IS DAYS
 MODEL LENGTH UNIT IS METERS
  Confining bed flag for each layer:
   0   0

                     DELR =   50.0000    

                     DELC =   50.0000    

 TOP ELEVATION OF LAYER 1 =  -10.0000    

   MODEL LAYER BOTTOM EL. =  -30.0000     FOR LAYER   1

   MODEL LAYER BOTTOM EL. =  -50.0000     FOR LAYER   2


 STRESS PERIOD     LENGTH       TIME STEPS     MULTIPLIER FOR DELT    SS FLAG
 ----------------------------------------------------------------------------
        1         73050.00       1000                    1.000         SS
        2         4383.000        120                    1.000         SS
        3         6574.500        180                    1.000         SS

 STEADY-STATE SIMULATION




 # Basic package file for MODFLOW, generated by Flopy.                           
 THE FREE FORMAT OPTION HAS BEEN SELECTED



                     BOUNDARY ARRAY FOR LAYER   1
 READING ON UNIT   13 WITH FORMAT: (61I10)             



                     BOUNDARY ARRAY FOR LAYER   2
 READING ON UNIT   13 WITH FORMAT: (61I10)             

 AQUIFER HEAD WILL BE SET TO  -999.99     AT ALL NO-FLOW NODES (IBOUND=0).



                       INITIAL HEAD FOR LAYER   1
 READING ON UNIT   13 WITH FORMAT: (61G15.6)           



                       INITIAL HEAD FOR LAYER   2
 READING ON UNIT   13 WITH FORMAT: (61G15.6)           
 # Output control package file for MODFLOW, generated by Flopy. Output control by words option
 # Deprecated flopy OC class

 OUTPUT CONTROL IS SPECIFIED ONLY AT TIME STEPS FOR WHICH OUTPUT IS DESIRED
 HEAD PRINT FORMAT CODE IS   0    DRAWDOWN PRINT FORMAT CODE IS   0
 HEADS WILL BE SAVED ON UNIT   51    DRAWDOWNS WILL BE SAVED ON UNIT   52

 LPF -- LAYER-PROPERTY FLOW PACKAGE, VERSION 7, 5/2/2005
         INPUT READ FROM UNIT   15
 # LPF for MODFLOW, generated by Flopy.
 CELL-BY-CELL FLOWS WILL BE SAVED ON UNIT   53
 HEAD AT CELLS THAT CONVERT TO DRY= -1.00000E+30
 No named parameters

   LAYER FLAGS:
 LAYER       LAYTYP        LAYAVG         CHANI        LAYVKA        LAYWET
 ---------------------------------------------------------------------------
    1             0             0     1.000E+00             0             0
    2             0             0     1.000E+00             0             0

   INTERPRETATION OF LAYER FLAGS:
                        INTERBLOCK     HORIZONTAL    DATA IN
         LAYER TYPE   TRANSMISSIVITY   ANISOTROPY   ARRAY VKA   WETTABILITY
 LAYER      (LAYTYP)      (LAYAVG)       (CHANI)      (LAYVKA)      (LAYWET)
 ---------------------------------------------------------------------------
    1      CONFINED      HARMONIC     1.000E+00    VERTICAL K  NON-WETTABLE
    2      CONFINED      HARMONIC     1.000E+00    VERTICAL K  NON-WETTABLE

 WETTING CAPABILITY IS NOT ACTIVE IN ANY LAYER

    HYD. COND. ALONG ROWS =   10.0000     FOR LAYER   1

      VERTICAL HYD. COND. =  0.200000     FOR LAYER   1

    HYD. COND. ALONG ROWS =   10.0000     FOR LAYER   2

      VERTICAL HYD. COND. =  0.200000     FOR LAYER   2

 WEL -- WELL PACKAGE, VERSION 7, 5/2/2005 INPUT READ FROM UNIT   20
 # Well file for MODFLOW, generated by Flopy.
 No named parameters
 MAXIMUM OF      2 ACTIVE WELLS AT ONE TIME


     0 Well parameters

 GHB -- GENERAL-HEAD BOUNDARY PACKAGE, VERSION 7, 5/2/2005
         INPUT READ FROM UNIT   23
 # GHB for MODFLOW, generated by Flopy.
 No named parameters
 MAXIMUM OF   2040 ACTIVE GHB CELLS AT ONE TIME


     0 GHB parameters

 RCH -- RECHARGE PACKAGE, VERSION 7, 5/2/2005 INPUT READ FROM UNIT   19
 # RCH for MODFLOW, generated by Flopy.
 No named parameters
 OPTION 3 -- RECHARGE TO HIGHEST ACTIVE NODE IN EACH VERTICAL COLUMN


     0 Recharge parameters

 PCG -- CONJUGATE-GRADIENT SOLUTION PACKAGE, VERSION 7, 5/2/2005
 # PCG for MODFLOW, generated by Flopy.
 MAXIMUM OF    100 CALLS OF SOLUTION ROUTINE
 MAXIMUM OF     50 INTERNAL ITERATIONS PER CALL TO SOLUTION ROUTINE
 MATRIX PRECONDITIONING TYPE :    1



                                    SOLUTION BY THE CONJUGATE-GRADIENT METHOD
                                   -------------------------------------------
                    MAXIMUM NUMBER OF CALLS TO PCG ROUTINE =      100
                        MAXIMUM ITERATIONS PER CALL TO PCG =       50
                               MATRIX PRECONDITIONING TYPE =        1
        RELAXATION FACTOR (ONLY USED WITH PRECOND. TYPE 1) =    0.10000E+01
 PARAMETER OF POLYNOMIAL PRECOND. = 2 (2) OR IS CALCULATED :        0
                         HEAD CHANGE CRITERION FOR CLOSURE =    0.10000E-05
                     RESIDUAL CHANGE CRITERION FOR CLOSURE =    0.30000E-02
            PCG HEAD AND RESIDUAL CHANGE PRINTOUT INTERVAL =      999
     PRINTING FROM SOLVER IS LIMITED(1) OR SUPPRESSED (>1) =        3
                            STEADY-STATE DAMPING PARAMETER =    0.10000E+01
                               TRANSIENT DAMPING PARAMETER =    0.10000E+01


 SWI2 -- SWI PACKAGE, VERSION 2.0.0, 07/22/2013
 --------------------------------------------------
 SWI2 INPUT READ FROM UNIT 29


 # Salt Water Intrusion (SWI2) package file for MODFLOW-2005, generated by Flopy.
 # Dataset 1


 SWI2 DATASET 1
 ----------------------------------------------------
 NUMBER OF SURFACES (NSRF):                         1
 TOTAL NUMBER OF ZONES:                             2
 DENSITY DISTRIBUTION OPTION (ISTRAT):              1
   VARIABLE DENSITY FLOW -- ISTRAT = 0
   STRATIFIED FLOW       -- ISTRAT = 1
 NUMBER OF SWI OBSERVATIONS (NOBS):                 2
 ZETA OUTPUT FILE UNIT NUMBER (ISWIZT):            55
 BUDGET OUTPUT FILE UNIT NUMBER (ISWICB):          53
 OBSERVATION OUTPUT FILE UNIT NUMBER (ISWIOBS):  1051
 ----------------------------------------------------
 # Dataset 2a


 SWI2 DATASET 2A
 ----------------------------------------------------
 SOLVER (NSOLVER):                                  1
   SOLVER =                      DIRECT SOLVER (DE4)
 SOLVER PRINTOUT INTERVAL (IPRSOL):               999
 SOLVER OUTPUT FLAG (MUTSOL):                       3
   0 = PRINTING EVERY ITERATION
   1 = LIMITED (TOTAL NUMBER OF ITERATIONS)
   2 = NO PRINTING
   3 = ONLY IF CONVERGENCE FAILS
 ----------------------------------------------------
 # Dataset 3a


 SWI2 DATASET 3A
 ----------------------------------------------------
 MAXIMUM TOE SURFACE SLOPE (TOESLOPE):      0.500E-02
 MAXIMUM TIP SURFACE SLOPE (TIPSLOPE):      0.500E-02
 EXCESS SURFACE SLOPE FRACTION (ALPHA):     0.100    
 MINIMUM ZONE THICKNESS FRACTION (BETA):    0.100    
 ----------------------------------------------------



                             NUZONE
 READING ON UNIT   29 WITH FORMAT: (2G15.6)            



                   ZETA SURFACE  1  FOR LAYER   1
 READING ON UNIT   29 WITH FORMAT: (61G15.6)           



                   ZETA SURFACE  1  FOR LAYER   2
 READING ON UNIT   29 WITH FORMAT: (61G15.6)           

                      SSZ =  0.200000     FOR LAYER   1

                      SSZ =  0.200000     FOR LAYER   2



                            IZONENR FOR LAYER   1
 READING ON UNIT   29 WITH FORMAT: (61I10)             



                            IZONENR FOR LAYER   2
 READING ON UNIT   29 WITH FORMAT: (61I10)             
 # Dataset 8


                 SWI2 OBSERVATION LOCATIONS
  OBSERVATION      LAYER        ROW     COLUMN       OBSNAM
 ----------------------------------------------------------
            1          1         31         36      layer1_
            2          2         31         36      layer2_


              SWI2 INVALID OBSERVATION LOCATIONS
 -----------------------------------------------------------
         NONE
1
                            STRESS PERIOD NO.    1, LENGTH =   73050.00    
                            -----------------------------------------------

                              NUMBER OF TIME STEPS =  1000

                               MULTIPLIER FOR DELT =     1.000

                            INITIAL TIME STEP SIZE =   73.05000    

 WELL NO.  LAYER   ROW   COL   STRESS RATE         
 --------------------------------------------------
      1      1     31     36       0.000    
      2      2     31     36       0.000    

      2 WELLS

 BOUND. NO. LAYER   ROW   COL     STAGE      CONDUCTANCE         
 ----------------------------------------------------------------
      1      1      1      1       0.000           62.50    
      2      1      1      2       0.000           62.50    
      3      1      1      3       0.000           62.50    
      4      1      1      4       0.000           62.50    
      5      1      1      5       0.000           62.50    
      6      1      1      6       0.000           62.50    
      7      1      1      7       0.000           62.50    
      8      1      1      8       0.000           62.50    
      9      1      1      9       0.000           62.50    
     10      1      1     10       0.000           62.50    
     11      1      1     11       0.000           62.50    
     12      1      1     12       0.000           62.50    
     13      1      1     13       0.000           62.50    
     14      1      1     14       0.000           62.50    
     15      1      1     15       0.000           62.50    
     16      1      1     16       0.000           62.50    
     17      1      1     17       0.000           62.50    
     18      1      1     18       0.000           62.50    
     19      1      1     19       0.000           62.50    
     20      1      1     20       0.000           62.50    
     21      1      1     21       0.000           62.50    
     22      1      1     22       0.000           62.50    
     23      1      1     23       0.000           62.50    
     24      1      1     24       0.000           62.50    
     25      1      1     25       0.000           62.50    
     26      1      1     26       0.000           62.50    
     27      1      1     27       0.000           62.50    
     28      1      1     28       0.000           62.50    
     29      1      1     29       0.000           62.50    
     30      1      1     30       0.000           62.50    
     31      1      1     31       0.000           62.50    
     32      1      1     32       0.000           62.50    
     33      1      1     33       0.000           62.50    
     34      1      1     34       0.000           62.50    
     35      1      1     35       0.000           62.50    
     36      1      1     36       0.000           62.50    
     37      1      1     37       0.000           62.50    
     38      1      1     38       0.000           62.50    
     39      1      1     39       0.000           62.50    
     40      1      1     40       0.000           62.50    
     41      1      1     41       0.000           62.50    
     42      1      1     42       0.000           62.50    
     43      1      1     43       0.000           62.50    
     44      1      1     44       0.000           62.50    
     45      1      1     45       0.000           62.50    
     46      1      1     46       0.000           62.50    
     47      1      1     47       0.000           62.50    
     48      1      1     48       0.000           62.50    
     49      1      1     49       0.000           62.50    
     50      1      1     50       0.000           62.50    
     51      1      1     51       0.000           62.50    
     52      1      1     52       0.000           62.50    
     53      1      1     53       0.000           62.50    
     54      1      1     54       0.000           62.50    
     55      1      1     55       0.000           62.50    
     56      1      1     56       0.000           62.50    
     57      1      1     57       0.000           62.50    
     58      1      1     58       0.000           62.50    
     59      1      1     59       0.000           62.50    
     60      1      1     60       0.000           62.50    
     61      1      1     61       0.000           62.50    
     62      1      2      1       0.000           62.50    
     63      1      2      2       0.000           62.50    
     64      1      2      3       0.000           62.50    
     65      1      2      4       0.000           62.50    
     66      1      2      5       0.000           62.50    
     67      1      2      6       0.000           62.50    
     68      1      2      7       0.000           62.50    
     69      1      2      8       0.000           62.50    
     70      1      2      9       0.000           62.50    
     71      1      2     10       0.000           62.50    
     72      1      2     11       0.000           62.50    
     73      1      2     12       0.000           62.50    
     74      1      2     13       0.000           62.50    
     75      1      2     14       0.000           62.50    
     76      1      2     15       0.000           62.50    
     77      1      2     16       0.000           62.50    
     78      1      2     17       0.000           62.50    
     79      1      2     18       0.000           62.50    
     80      1      2     19       0.000           62.50    
     81      1      2     20       0.000           62.50    
     82      1      2     21       0.000           62.50    
     83      1      2     22       0.000           62.50    
     84      1      2     23       0.000           62.50    
     85      1      2     24       0.000           62.50    
     86      1      2     25       0.000           62.50    
     87      1      2     26       0.000           62.50    
     88      1      2     27       0.000           62.50    
     89      1      2     28       0.000           62.50    
     90      1      2     29       0.000           62.50    
     91      1      2     30       0.000           62.50    
     92      1      2     31       0.000           62.50    
     93      1      2     32       0.000           62.50    
     94      1      2     33       0.000           62.50    
     95      1      2     34       0.000           62.50    
     96      1      2     35       0.000           62.50    
     97      1      2     36       0.000           62.50    
     98      1      2     37       0.000           62.50    
     99      1      2     38       0.000           62.50    
    100      1      2     39       0.000           62.50    
    101      1      2     40       0.000           62.50    
    102      1      2     41       0.000           62.50    
    103      1      2     42       0.000           62.50    
    104      1      2     43       0.000           62.50    
    105      1      2     44       0.000           62.50    
    106      1      2     45       0.000           62.50    
    107      1      2     46       0.000           62.50    
    108      1      2     47       0.000           62.50    
    109      1      2     48       0.000           62.50    
    110      1      2     49       0.000           62.50    
    111      1      2     50       0.000           62.50    
    112      1      2     51       0.000           62.50    
    113      1      2     52       0.000           62.50    
    114      1      2     53       0.000           62.50    
    115      1      2     54       0.000           62.50    
    116      1      2     55       0.000           62.50    
    117      1      2     56       0.000           62.50    
    118      1      2     57       0.000           62.50    
    119      1      2     58       0.000           62.50    
    120      1      2     59       0.000           62.50    
    121      1      2     60       0.000           62.50    
    122      1      2     61       0.000           62.50    
    123      1      3      1       0.000           62.50    
    124      1      3      2       0.000           62.50    
    125      1      3      3       0.000           62.50    
    126      1      3      4       0.000           62.50    
    127      1      3      5       0.000           62.50    
    128      1      3      6       0.000           62.50    
    129      1      3      7       0.000           62.50    
    130      1      3      8       0.000           62.50    
    131      1      3      9       0.000           62.50    
    132      1      3     10       0.000           62.50    
    133      1      3     11       0.000           62.50    
    134      1      3     12       0.000           62.50    
    135      1      3     13       0.000           62.50    
    136      1      3     14       0.000           62.50    
    137      1      3     15       0.000           62.50    
    138      1      3     16       0.000           62.50    
    139      1      3     17       0.000           62.50    
    140      1      3     18       0.000           62.50    
    141      1      3     19       0.000           62.50    
    142      1      3     20       0.000           62.50    
    143      1      3     21       0.000           62.50    
    144      1      3     22       0.000           62.50    
    145      1      3     23       0.000           62.50    
    146      1      3     24       0.000           62.50    
    147      1      3     25       0.000           62.50    
    148      1      3     26       0.000           62.50    
    149      1      3     27       0.000           62.50    
    150      1      3     28       0.000           62.50    
    151      1      3     29       0.000           62.50    
    152      1      3     30       0.000           62.50    
    153      1      3     31       0.000           62.50    
    154      1      3     32       0.000           62.50    
    155      1      3     33       0.000           62.50    
    156      1      3     34       0.000           62.50    
    157      1      3     35       0.000           62.50    
    158      1      3     36       0.000           62.50    
    159      1      3     37       0.000           62.50    
    160      1      3     38       0.000           62.50    
    161      1      3     39       0.000           62.50    
    162      1      3     40       0.000           62.50    
    163      1      3     41       0.000           62.50    
    164      1      3     42       0.000           62.50    
    165      1      3     43       0.000           62.50    
    166      1      3     44       0.000           62.50    
    167      1      3     45       0.000           62.50    
    168      1      3     46       0.000           62.50    
    169      1      3     47       0.000           62.50    
    170      1      3     48       0.000           62.50    
    171      1      3     49       0.000           62.50    
    172      1      3     50       0.000           62.50    
    173      1      3     51       0.000           62.50    
    174      1      3     52       0.000           62.50    
    175      1      3     53       0.000           62.50    
    176      1      3     54       0.000           62.50    
    177      1      3     55       0.000           62.50    
    178      1      3     56       0.000           62.50    
    179      1      3     57       0.000           62.50    
    180      1      3     58       0.000           62.50    
    181      1      3     59       0.000           62.50    
    182      1      3     60       0.000           62.50    
    183      1      3     61       0.000           62.50    
    184      1      4      1       0.000           62.50    
    185      1      4      2       0.000           62.50    
    186      1      4      3       0.000           62.50    
    187      1      4      4       0.000           62.50    
    188      1      4      5       0.000           62.50    
    189      1      4      6       0.000           62.50    
    190      1      4      7       0.000           62.50    
    191      1      4      8       0.000           62.50    
    192      1      4      9       0.000           62.50    
    193      1      4     10       0.000           62.50    
    194      1      4     11       0.000           62.50    
    195      1      4     12       0.000           62.50    
    196      1      4     13       0.000           62.50    
    197      1      4     14       0.000           62.50    
    198      1      4     15       0.000           62.50    
    199      1      4     16       0.000           62.50    
    200      1      4     17       0.000           62.50    
    201      1      4     18       0.000           62.50    
    202      1      4     19       0.000           62.50    
    203      1      4     20       0.000           62.50    
    204      1      4     21       0.000           62.50    
    205      1      4     22       0.000           62.50    
    206      1      4     23       0.000           62.50    
    207      1      4     24       0.000           62.50    
    208      1      4     25       0.000           62.50    
    209      1      4     26       0.000           62.50    
    210      1      4     27       0.000           62.50    
    211      1      4     28       0.000           62.50    
    212      1      4     29       0.000           62.50    
    213      1      4     30       0.000           62.50    
    214      1      4     31       0.000           62.50    
    215      1      4     32       0.000           62.50    
    216      1      4     33       0.000           62.50    
    217      1      4     34       0.000           62.50    
    218      1      4     35       0.000           62.50    
    219      1      4     36       0.000           62.50    
    220      1      4     37       0.000           62.50    
    221      1      4     38       0.000           62.50    
    222      1      4     39       0.000           62.50    
    223      1      4     40       0.000           62.50    
    224      1      4     41       0.000           62.50    
    225      1      4     42       0.000           62.50    
    226      1      4     43       0.000           62.50    
    227      1      4     44       0.000           62.50    
    228      1      4     45       0.000           62.50    
    229      1      4     46       0.000           62.50    
    230      1      4     47       0.000           62.50    
    231      1      4     48       0.000           62.50    
    232      1      4     49       0.000           62.50    
    233      1      4     50       0.000           62.50    
    234      1      4     51       0.000           62.50    
    235      1      4     52       0.000           62.50    
    236      1      4     53       0.000           62.50    
    237      1      4     54       0.000           62.50    
    238      1      4     55       0.000           62.50    
    239      1      4     56       0.000           62.50    
    240      1      4     57       0.000           62.50    
    241      1      4     58       0.000           62.50    
    242      1      4     59       0.000           62.50    
    243      1      4     60       0.000           62.50    
    244      1      4     61       0.000           62.50    
    245      1      5      1       0.000           62.50    
    246      1      5      2       0.000           62.50    
    247      1      5      3       0.000           62.50    
    248      1      5      4       0.000           62.50    
    249      1      5      5       0.000           62.50    
    250      1      5      6       0.000           62.50    
    251      1      5      7       0.000           62.50    
    252      1      5      8       0.000           62.50    
    253      1      5      9       0.000           62.50    
    254      1      5     10       0.000           62.50    
    255      1      5     11       0.000           62.50    
    256      1      5     12       0.000           62.50    
    257      1      5     13       0.000           62.50    
    258      1      5     14       0.000           62.50    
    259      1      5     15       0.000           62.50    
    260      1      5     16       0.000           62.50    
    261      1      5     17       0.000           62.50    
    262      1      5     18       0.000           62.50    
    263      1      5     19       0.000           62.50    
    264      1      5     20       0.000           62.50    
    265      1      5     21       0.000           62.50    
    266      1      5     22       0.000           62.50    
    267      1      5     23       0.000           62.50    
    268      1      5     24       0.000           62.50    
    269      1      5     25       0.000           62.50    
    270      1      5     26       0.000           62.50    
    271      1      5     27       0.000           62.50    
    272      1      5     28       0.000           62.50    
    273      1      5     29       0.000           62.50    
    274      1      5     30       0.000           62.50    
    275      1      5     31       0.000           62.50    
    276      1      5     32       0.000           62.50    
    277      1      5     33       0.000           62.50    
    278      1      5     34       0.000           62.50    
    279      1      5     35       0.000           62.50    
    280      1      5     36       0.000           62.50    
    281      1      5     37       0.000           62.50    
    282      1      5     38       0.000           62.50    
    283      1      5     39       0.000           62.50    
    284      1      5     40       0.000           62.50    
    285      1      5     41       0.000           62.50    
    286      1      5     42       0.000           62.50    
    287      1      5     43       0.000           62.50    
    288      1      5     44       0.000           62.50    
    289      1      5     45       0.000           62.50    
    290      1      5     46       0.000           62.50    
    291      1      5     47       0.000           62.50    
    292      1      5     48       0.000           62.50    
    293      1      5     49       0.000           62.50    
    294      1      5     50       0.000           62.50    
    295      1      5     51       0.000           62.50    
    296      1      5     52       0.000           62.50    
    297      1      5     53       0.000           62.50    
    298      1      5     54       0.000           62.50    
    299      1      5     55       0.000           62.50    
    300      1      5     56       0.000           62.50    
    301      1      5     57       0.000           62.50    
    302      1      5     58       0.000           62.50    
    303      1      5     59       0.000           62.50    
    304      1      5     60       0.000           62.50    
    305      1      5     61       0.000           62.50    
    306      1      6      1       0.000           62.50    
    307      1      6      2       0.000           62.50    
    308      1      6      3       0.000           62.50    
    309      1      6      4       0.000           62.50    
    310      1      6      5       0.000           62.50    
    311      1      6      6       0.000           62.50    
    312      1      6      7       0.000           62.50    
    313      1      6      8       0.000           62.50    
    314      1      6      9       0.000           62.50    
    315      1      6     10       0.000           62.50    
    316      1      6     11       0.000           62.50    
    317      1      6     12       0.000           62.50    
    318      1      6     13       0.000           62.50    
    319      1      6     14       0.000           62.50    
    320      1      6     15       0.000           62.50    
    321      1      6     16       0.000           62.50    
    322      1      6     17       0.000           62.50    
    323      1      6     18       0.000           62.50    
    324      1      6     19       0.000           62.50    
    325      1      6     20       0.000           62.50    
    326      1      6     21       0.000           62.50    
    327      1      6     22       0.000           62.50    
    328      1      6     23       0.000           62.50    
    329      1      6     24       0.000           62.50    
    330      1      6     25       0.000           62.50    
    331      1      6     26       0.000           62.50    
    332      1      6     27       0.000           62.50    
    333      1      6     28       0.000           62.50    
    334      1      6     29       0.000           62.50    
    335      1      6     30       0.000           62.50    
    336      1      6     31       0.000           62.50    
    337      1      6     32       0.000           62.50    
    338      1      6     33       0.000           62.50    
    339      1      6     34       0.000           62.50    
    340      1      6     35       0.000           62.50    
    341      1      6     36       0.000           62.50    
    342      1      6     37       0.000           62.50    
    343      1      6     38       0.000           62.50    
    344      1      6     39       0.000           62.50    
    345      1      6     40       0.000           62.50    
    346      1      6     41       0.000           62.50    
    347      1      6     42       0.000           62.50    
    348      1      6     43       0.000           62.50    
    349      1      6     44       0.000           62.50    
    350      1      6     45       0.000           62.50    
    351      1      6     46       0.000           62.50    
    352      1      6     47       0.000           62.50    
    353      1      6     48       0.000           62.50    
    354      1      6     49       0.000           62.50    
    355      1      6     50       0.000           62.50    
    356      1      6     51       0.000           62.50    
    357      1      6     52       0.000           62.50    
    358      1      6     53       0.000           62.50    
    359      1      6     54       0.000           62.50    
    360      1      6     55       0.000           62.50    
    361      1      6     56       0.000           62.50    
    362      1      6     57       0.000           62.50    
    363      1      6     58       0.000           62.50    
    364      1      6     59       0.000           62.50    
    365      1      6     60       0.000           62.50    
    366      1      6     61       0.000           62.50    
    367      1      7      1       0.000           62.50    
    368      1      7      2       0.000           62.50    
    369      1      7      3       0.000           62.50    
    370      1      7      4       0.000           62.50    
    371      1      7      5       0.000           62.50    
    372      1      7      6       0.000           62.50    
    373      1      7      7       0.000           62.50    
    374      1      7      8       0.000           62.50    
    375      1      7      9       0.000           62.50    
    376      1      7     10       0.000           62.50    
    377      1      7     11       0.000           62.50    
    378      1      7     12       0.000           62.50    
    379      1      7     13       0.000           62.50    
    380      1      7     14       0.000           62.50    
    381      1      7     15       0.000           62.50    
    382      1      7     16       0.000           62.50    
    383      1      7     17       0.000           62.50    
    384      1      7     18       0.000           62.50    
    385      1      7     19       0.000           62.50    
    386      1      7     20       0.000           62.50    
    387      1      7     21       0.000           62.50    
    388      1      7     22       0.000           62.50    
    389      1      7     23       0.000           62.50    
    390      1      7     24       0.000           62.50    
    391      1      7     25       0.000           62.50    
    392      1      7     26       0.000           62.50    
    393      1      7     27       0.000           62.50    
    394      1      7     28       0.000           62.50    
    395      1      7     29       0.000           62.50    
    396      1      7     30       0.000           62.50    
    397      1      7     31       0.000           62.50    
    398      1      7     32       0.000           62.50    
    399      1      7     33       0.000           62.50    
    400      1      7     34       0.000           62.50    
    401      1      7     35       0.000           62.50    
    402      1      7     36       0.000           62.50    
    403      1      7     37       0.000           62.50    
    404      1      7     38       0.000           62.50    
    405      1      7     39       0.000           62.50    
    406      1      7     40       0.000           62.50    
    407      1      7     41       0.000           62.50    
    408      1      7     42       0.000           62.50    
    409      1      7     43       0.000           62.50    
    410      1      7     44       0.000           62.50    
    411      1      7     45       0.000           62.50    
    412      1      7     46       0.000           62.50    
    413      1      7     47       0.000           62.50    
    414      1      7     48       0.000           62.50    
    415      1      7     49       0.000           62.50    
    416      1      7     50       0.000           62.50    
    417      1      7     51       0.000           62.50    
    418      1      7     52       0.000           62.50    
    419      1      7     53       0.000           62.50    
    420      1      7     54       0.000           62.50    
    421      1      7     55       0.000           62.50    
    422      1      7     56       0.000           62.50    
    423      1      7     57       0.000           62.50    
    424      1      7     58       0.000           62.50    
    425      1      7     59       0.000           62.50    
    426      1      7     60       0.000           62.50    
    427      1      7     61       0.000           62.50    
    428      1      8      1       0.000           62.50    
    429      1      8      2       0.000           62.50    
    430      1      8      3       0.000           62.50    
    431      1      8      4       0.000           62.50    
    432      1      8      5       0.000           62.50    
    433      1      8      6       0.000           62.50    
    434      1      8      7       0.000           62.50    
    435      1      8      8       0.000           62.50    
    436      1      8      9       0.000           62.50    
    437      1      8     10       0.000           62.50    
    438      1      8     11       0.000           62.50    
    439      1      8     12       0.000           62.50    
    440      1      8     13       0.000           62.50    
    441      1      8     14       0.000           62.50    
    442      1      8     15       0.000           62.50    
    443      1      8     16       0.000           62.50    
    444      1      8     17       0.000           62.50    
    445      1      8     18       0.000           62.50    
    446      1      8     19       0.000           62.50    
    447      1      8     20       0.000           62.50    
    448      1      8     21       0.000           62.50    
    449      1      8     22       0.000           62.50    
    450      1      8     23       0.000           62.50    
    451      1      8     24       0.000           62.50    
    452      1      8     25       0.000           62.50    
    453      1      8     26       0.000           62.50    
    454      1      8     27       0.000           62.50    
    455      1      8     28       0.000           62.50    
    456      1      8     29       0.000           62.50    
    457      1      8     30       0.000           62.50    
    458      1      8     31       0.000           62.50    
    459      1      8     32       0.000           62.50    
    460      1      8     33       0.000           62.50    
    461      1      8     34       0.000           62.50    
    462      1      8     35       0.000           62.50    
    463      1      8     36       0.000           62.50    
    464      1      8     37       0.000           62.50    
    465      1      8     38       0.000           62.50    
    466      1      8     39       0.000           62.50    
    467      1      8     40       0.000           62.50    
    468      1      8     41       0.000           62.50    
    469      1      8     42       0.000           62.50    
    470      1      8     43       0.000           62.50    
    471      1      8     44       0.000           62.50    
    472      1      8     45       0.000           62.50    
    473      1      8     46       0.000           62.50    
    474      1      8     47       0.000           62.50    
    475      1      8     48       0.000           62.50    
    476      1      8     49       0.000           62.50    
    477      1      8     50       0.000           62.50    
    478      1      8     51       0.000           62.50    
    479      1      8     52       0.000           62.50    
    480      1      8     53       0.000           62.50    
    481      1      8     54       0.000           62.50    
    482      1      8     55       0.000           62.50    
    483      1      8     56       0.000           62.50    
    484      1      8     57       0.000           62.50    
    485      1      8     58       0.000           62.50    
    486      1      8     59       0.000           62.50    
    487      1      8     60       0.000           62.50    
    488      1      8     61       0.000           62.50    
    489      1      9      1       0.000           62.50    
    490      1      9      2       0.000           62.50    
    491      1      9      3       0.000           62.50    
    492      1      9      4       0.000           62.50    
    493      1      9      5       0.000           62.50    
    494      1      9      6       0.000           62.50    
    495      1      9      7       0.000           62.50    
    496      1      9      8       0.000           62.50    
    497      1      9      9       0.000           62.50    
    498      1      9     10       0.000           62.50    
    499      1      9     11       0.000           62.50    
    500      1      9     12       0.000           62.50    
    501      1      9     13       0.000           62.50    
    502      1      9     14       0.000           62.50    
    503      1      9     15       0.000           62.50    
    504      1      9     16       0.000           62.50    
    505      1      9     17       0.000           62.50    
    506      1      9     18       0.000           62.50    
    507      1      9     19       0.000           62.50    
    508      1      9     20       0.000           62.50    
    509      1      9     21       0.000           62.50    
    510      1      9     22       0.000           62.50    
    511      1      9     23       0.000           62.50    
    512      1      9     24       0.000           62.50    
    513      1      9     25       0.000           62.50    
    514      1      9     26       0.000           62.50    
    515      1      9     27       0.000           62.50    
    516      1      9     28       0.000           62.50    
    517      1      9     29       0.000           62.50    
    518      1      9     30       0.000           62.50    
    519      1      9     31       0.000           62.50    
    520      1      9     32       0.000           62.50    
    521      1      9     33       0.000           62.50    
    522      1      9     34       0.000           62.50    
    523      1      9     35       0.000           62.50    
    524      1      9     36       0.000           62.50    
    525      1      9     37       0.000           62.50    
    526      1      9     38       0.000           62.50    
    527      1      9     39       0.000           62.50    
    528      1      9     40       0.000           62.50    
    529      1      9     41       0.000           62.50    
    530      1      9     42       0.000           62.50    
    531      1      9     43       0.000           62.50    
    532      1      9     44       0.000           62.50    
    533      1      9     45       0.000           62.50    
    534      1      9     46       0.000           62.50    
    535      1      9     47       0.000           62.50    
    536      1      9     48       0.000           62.50    
    537      1      9     49       0.000           62.50    
    538      1      9     50       0.000           62.50    
    539      1      9     51       0.000           62.50    
    540      1      9     52       0.000           62.50    
    541      1      9     53       0.000           62.50    
    542      1      9     54       0.000           62.50    
    543      1      9     55       0.000           62.50    
    544      1      9     56       0.000           62.50    
    545      1      9     57       0.000           62.50    
    546      1      9     58       0.000           62.50    
    547      1      9     59       0.000           62.50    
    548      1      9     60       0.000           62.50    
    549      1      9     61       0.000           62.50    
    550      1     10      1       0.000           62.50    
    551      1     10      2       0.000           62.50    
    552      1     10      3       0.000           62.50    
    553      1     10      4       0.000           62.50    
    554      1     10      5       0.000           62.50    
    555      1     10      6       0.000           62.50    
    556      1     10      7       0.000           62.50    
    557      1     10      8       0.000           62.50    
    558      1     10      9       0.000           62.50    
    559      1     10     10       0.000           62.50    
    560      1     10     11       0.000           62.50    
    561      1     10     12       0.000           62.50    
    562      1     10     13       0.000           62.50    
    563      1     10     14       0.000           62.50    
    564      1     10     15       0.000           62.50    
    565      1     10     16       0.000           62.50    
    566      1     10     17       0.000           62.50    
    567      1     10     18       0.000           62.50    
    568      1     10     19       0.000           62.50    
    569      1     10     20       0.000           62.50    
    570      1     10     21       0.000           62.50    
    571      1     10     22       0.000           62.50    
    572      1     10     23       0.000           62.50    
    573      1     10     24       0.000           62.50    
    574      1     10     25       0.000           62.50    
    575      1     10     26       0.000           62.50    
    576      1     10     27       0.000           62.50    
    577      1     10     28       0.000           62.50    
    578      1     10     29       0.000           62.50    
    579      1     10     30       0.000           62.50    
    580      1     10     31       0.000           62.50    
    581      1     10     32       0.000           62.50    
    582      1     10     33       0.000           62.50    
    583      1     10     34       0.000           62.50    
    584      1     10     35       0.000           62.50    
    585      1     10     36       0.000           62.50    
    586      1     10     37       0.000           62.50    
    587      1     10     38       0.000           62.50    
    588      1     10     39       0.000           62.50    
    589      1     10     40       0.000           62.50    
    590      1     10     41       0.000           62.50    
    591      1     10     42       0.000           62.50    
    592      1     10     43       0.000           62.50    
    593      1     10     44       0.000           62.50    
    594      1     10     45       0.000           62.50    
    595      1     10     46       0.000           62.50    
    596      1     10     47       0.000           62.50    
    597      1     10     48       0.000           62.50    
    598      1     10     49       0.000           62.50    
    599      1     10     50       0.000           62.50    
    600      1     10     51       0.000           62.50    
    601      1     10     52       0.000           62.50    
    602      1     10     53       0.000           62.50    
    603      1     10     54       0.000           62.50    
    604      1     10     55       0.000           62.50    
    605      1     10     56       0.000           62.50    
    606      1     10     57       0.000           62.50    
    607      1     10     58       0.000           62.50    
    608      1     10     59       0.000           62.50    
    609      1     10     60       0.000           62.50    
    610      1     10     61       0.000           62.50    
    611      1     11      1       0.000           62.50    
    612      1     11      2       0.000           62.50    
    613      1     11      3       0.000           62.50    
    614      1     11      4       0.000           62.50    
    615      1     11      5       0.000           62.50    
    616      1     11      6       0.000           62.50    
    617      1     11      7       0.000           62.50    
    618      1     11      8       0.000           62.50    
    619      1     11      9       0.000           62.50    
    620      1     11     10       0.000           62.50    
    621      1     11     52       0.000           62.50    
    622      1     11     53       0.000           62.50    
    623      1     11     54       0.000           62.50    
    624      1     11     55       0.000           62.50    
    625      1     11     56       0.000           62.50    
    626      1     11     57       0.000           62.50    
    627      1     11     58       0.000           62.50    
    628      1     11     59       0.000           62.50    
    629      1     11     60       0.000           62.50    
    630      1     11     61       0.000           62.50    
    631      1     12      1       0.000           62.50    
    632      1     12      2       0.000           62.50    
    633      1     12      3       0.000           62.50    
    634      1     12      4       0.000           62.50    
    635      1     12      5       0.000           62.50    
    636      1     12      6       0.000           62.50    
    637      1     12      7       0.000           62.50    
    638      1     12      8       0.000           62.50    
    639      1     12      9       0.000           62.50    
    640      1     12     10       0.000           62.50    
    641      1     12     52       0.000           62.50    
    642      1     12     53       0.000           62.50    
    643      1     12     54       0.000           62.50    
    644      1     12     55       0.000           62.50    
    645      1     12     56       0.000           62.50    
    646      1     12     57       0.000           62.50    
    647      1     12     58       0.000           62.50    
    648      1     12     59       0.000           62.50    
    649      1     12     60       0.000           62.50    
    650      1     12     61       0.000           62.50    
    651      1     13      1       0.000           62.50    
    652      1     13      2       0.000           62.50    
    653      1     13      3       0.000           62.50    
    654      1     13      4       0.000           62.50    
    655      1     13      5       0.000           62.50    
    656      1     13      6       0.000           62.50    
    657      1     13      7       0.000           62.50    
    658      1     13      8       0.000           62.50    
    659      1     13      9       0.000           62.50    
    660      1     13     10       0.000           62.50    
    661      1     13     52       0.000           62.50    
    662      1     13     53       0.000           62.50    
    663      1     13     54       0.000           62.50    
    664      1     13     55       0.000           62.50    
    665      1     13     56       0.000           62.50    
    666      1     13     57       0.000           62.50    
    667      1     13     58       0.000           62.50    
    668      1     13     59       0.000           62.50    
    669      1     13     60       0.000           62.50    
    670      1     13     61       0.000           62.50    
    671      1     14      1       0.000           62.50    
    672      1     14      2       0.000           62.50    
    673      1     14      3       0.000           62.50    
    674      1     14      4       0.000           62.50    
    675      1     14      5       0.000           62.50    
    676      1     14      6       0.000           62.50    
    677      1     14      7       0.000           62.50    
    678      1     14      8       0.000           62.50    
    679      1     14      9       0.000           62.50    
    680      1     14     10       0.000           62.50    
    681      1     14     52       0.000           62.50    
    682      1     14     53       0.000           62.50    
    683      1     14     54       0.000           62.50    
    684      1     14     55       0.000           62.50    
    685      1     14     56       0.000           62.50    
    686      1     14     57       0.000           62.50    
    687      1     14     58       0.000           62.50    
    688      1     14     59       0.000           62.50    
    689      1     14     60       0.000           62.50    
    690      1     14     61       0.000           62.50    
    691      1     15      1       0.000           62.50    
    692      1     15      2       0.000           62.50    
    693      1     15      3       0.000           62.50    
    694      1     15      4       0.000           62.50    
    695      1     15      5       0.000           62.50    
    696      1     15      6       0.000           62.50    
    697      1     15      7       0.000           62.50    
    698      1     15      8       0.000           62.50    
    699      1     15      9       0.000           62.50    
    700      1     15     10       0.000           62.50    
    701      1     15     52       0.000           62.50    
    702      1     15     53       0.000           62.50    
    703      1     15     54       0.000           62.50    
    704      1     15     55       0.000           62.50    
    705      1     15     56       0.000           62.50    
    706      1     15     57       0.000           62.50    
    707      1     15     58       0.000           62.50    
    708      1     15     59       0.000           62.50    
    709      1     15     60       0.000           62.50    
    710      1     15     61       0.000           62.50    
    711      1     16      1       0.000           62.50    
    712      1     16      2       0.000           62.50    
    713      1     16      3       0.000           62.50    
    714      1     16      4       0.000           62.50    
    715      1     16      5       0.000           62.50    
    716      1     16      6       0.000           62.50    
    717      1     16      7       0.000           62.50    
    718      1     16      8       0.000           62.50    
    719      1     16      9       0.000           62.50    
    720      1     16     10       0.000           62.50    
    721      1     16     52       0.000           62.50    
    722      1     16     53       0.000           62.50    
    723      1     16     54       0.000           62.50    
    724      1     16     55       0.000           62.50    
    725      1     16     56       0.000           62.50    
    726      1     16     57       0.000           62.50    
    727      1     16     58       0.000           62.50    
    728      1     16     59       0.000           62.50    
    729      1     16     60       0.000           62.50    
    730      1     16     61       0.000           62.50    
    731      1     17      1       0.000           62.50    
    732      1     17      2       0.000           62.50    
    733      1     17      3       0.000           62.50    
    734      1     17      4       0.000           62.50    
    735      1     17      5       0.000           62.50    
    736      1     17      6       0.000           62.50    
    737      1     17      7       0.000           62.50    
    738      1     17      8       0.000           62.50    
    739      1     17      9       0.000           62.50    
    740      1     17     10       0.000           62.50    
    741      1     17     52       0.000           62.50    
    742      1     17     53       0.000           62.50    
    743      1     17     54       0.000           62.50    
    744      1     17     55       0.000           62.50    
    745      1     17     56       0.000           62.50    
    746      1     17     57       0.000           62.50    
    747      1     17     58       0.000           62.50    
    748      1     17     59       0.000           62.50    
    749      1     17     60       0.000           62.50    
    750      1     17     61       0.000           62.50    
    751      1     18      1       0.000           62.50    
    752      1     18      2       0.000           62.50    
    753      1     18      3       0.000           62.50    
    754      1     18      4       0.000           62.50    
    755      1     18      5       0.000           62.50    
    756      1     18      6       0.000           62.50    
    757      1     18      7       0.000           62.50    
    758      1     18      8       0.000           62.50    
    759      1     18      9       0.000           62.50    
    760      1     18     10       0.000           62.50    
    761      1     18     52       0.000           62.50    
    762      1     18     53       0.000           62.50    
    763      1     18     54       0.000           62.50    
    764      1     18     55       0.000           62.50    
    765      1     18     56       0.000           62.50    
    766      1     18     57       0.000           62.50    
    767      1     18     58       0.000           62.50    
    768      1     18     59       0.000           62.50    
    769      1     18     60       0.000           62.50    
    770      1     18     61       0.000           62.50    
    771      1     19      1       0.000           62.50    
    772      1     19      2       0.000           62.50    
    773      1     19      3       0.000           62.50    
    774      1     19      4       0.000           62.50    
    775      1     19      5       0.000           62.50    
    776      1     19      6       0.000           62.50    
    777      1     19      7       0.000           62.50    
    778      1     19      8       0.000           62.50    
    779      1     19      9       0.000           62.50    
    780      1     19     10       0.000           62.50    
    781      1     19     52       0.000           62.50    
    782      1     19     53       0.000           62.50    
    783      1     19     54       0.000           62.50    
    784      1     19     55       0.000           62.50    
    785      1     19     56       0.000           62.50    
    786      1     19     57       0.000           62.50    
    787      1     19     58       0.000           62.50    
    788      1     19     59       0.000           62.50    
    789      1     19     60       0.000           62.50    
    790      1     19     61       0.000           62.50    
    791      1     20      1       0.000           62.50    
    792      1     20      2       0.000           62.50    
    793      1     20      3       0.000           62.50    
    794      1     20      4       0.000           62.50    
    795      1     20      5       0.000           62.50    
    796      1     20      6       0.000           62.50    
    797      1     20      7       0.000           62.50    
    798      1     20      8       0.000           62.50    
    799      1     20      9       0.000           62.50    
    800      1     20     10       0.000           62.50    
    801      1     20     52       0.000           62.50    
    802      1     20     53       0.000           62.50    
    803      1     20     54       0.000           62.50    
    804      1     20     55       0.000           62.50    
    805      1     20     56       0.000           62.50    
    806      1     20     57       0.000           62.50    
    807      1     20     58       0.000           62.50    
    808      1     20     59       0.000           62.50    
    809      1     20     60       0.000           62.50    
    810      1     20     61       0.000           62.50    
    811      1     21      1       0.000           62.50    
    812      1     21      2       0.000           62.50    
    813      1     21      3       0.000           62.50    
    814      1     21      4       0.000           62.50    
    815      1     21      5       0.000           62.50    
    816      1     21      6       0.000           62.50    
    817      1     21      7       0.000           62.50    
    818      1     21      8       0.000           62.50    
    819      1     21      9       0.000           62.50    
    820      1     21     10       0.000           62.50    
    821      1     21     52       0.000           62.50    
    822      1     21     53       0.000           62.50    
    823      1     21     54       0.000           62.50    
    824      1     21     55       0.000           62.50    
    825      1     21     56       0.000           62.50    
    826      1     21     57       0.000           62.50    
    827      1     21     58       0.000           62.50    
    828      1     21     59       0.000           62.50    
    829      1     21     60       0.000           62.50    
    830      1     21     61       0.000           62.50    
    831      1     22      1       0.000           62.50    
    832      1     22      2       0.000           62.50    
    833      1     22      3       0.000           62.50    
    834      1     22      4       0.000           62.50    
    835      1     22      5       0.000           62.50    
    836      1     22      6       0.000           62.50    
    837      1     22      7       0.000           62.50    
    838      1     22      8       0.000           62.50    
    839      1     22      9       0.000           62.50    
    840      1     22     10       0.000           62.50    
    841      1     22     52       0.000           62.50    
    842      1     22     53       0.000           62.50    
    843      1     22     54       0.000           62.50    
    844      1     22     55       0.000           62.50    
    845      1     22     56       0.000           62.50    
    846      1     22     57       0.000           62.50    
    847      1     22     58       0.000           62.50    
    848      1     22     59       0.000           62.50    
    849      1     22     60       0.000           62.50    
    850      1     22     61       0.000           62.50    
    851      1     23      1       0.000           62.50    
    852      1     23      2       0.000           62.50    
    853      1     23      3       0.000           62.50    
    854      1     23      4       0.000           62.50    
    855      1     23      5       0.000           62.50    
    856      1     23      6       0.000           62.50    
    857      1     23      7       0.000           62.50    
    858      1     23      8       0.000           62.50    
    859      1     23      9       0.000           62.50    
    860      1     23     10       0.000           62.50    
    861      1     23     52       0.000           62.50    
    862      1     23     53       0.000           62.50    
    863      1     23     54       0.000           62.50    
    864      1     23     55       0.000           62.50    
    865      1     23     56       0.000           62.50    
    866      1     23     57       0.000           62.50    
    867      1     23     58       0.000           62.50    
    868      1     23     59       0.000           62.50    
    869      1     23     60       0.000           62.50    
    870      1     23     61       0.000           62.50    
    871      1     24      1       0.000           62.50    
    872      1     24      2       0.000           62.50    
    873      1     24      3       0.000           62.50    
    874      1     24      4       0.000           62.50    
    875      1     24      5       0.000           62.50    
    876      1     24      6       0.000           62.50    
    877      1     24      7       0.000           62.50    
    878      1     24      8       0.000           62.50    
    879      1     24      9       0.000           62.50    
    880      1     24     10       0.000           62.50    
    881      1     24     52       0.000           62.50    
    882      1     24     53       0.000           62.50    
    883      1     24     54       0.000           62.50    
    884      1     24     55       0.000           62.50    
    885      1     24     56       0.000           62.50    
    886      1     24     57       0.000           62.50    
    887      1     24     58       0.000           62.50    
    888      1     24     59       0.000           62.50    
    889      1     24     60       0.000           62.50    
    890      1     24     61       0.000           62.50    
    891      1     25      1       0.000           62.50    
    892      1     25      2       0.000           62.50    
    893      1     25      3       0.000           62.50    
    894      1     25      4       0.000           62.50    
    895      1     25      5       0.000           62.50    
    896      1     25      6       0.000           62.50    
    897      1     25      7       0.000           62.50    
    898      1     25      8       0.000           62.50    
    899      1     25      9       0.000           62.50    
    900      1     25     10       0.000           62.50    
    901      1     25     52       0.000           62.50    
    902      1     25     53       0.000           62.50    
    903      1     25     54       0.000           62.50    
    904      1     25     55       0.000           62.50    
    905      1     25     56       0.000           62.50    
    906      1     25     57       0.000           62.50    
    907      1     25     58       0.000           62.50    
    908      1     25     59       0.000           62.50    
    909      1     25     60       0.000           62.50    
    910      1     25     61       0.000           62.50    
    911      1     26      1       0.000           62.50    
    912      1     26      2       0.000           62.50    
    913      1     26      3       0.000           62.50    
    914      1     26      4       0.000           62.50    
    915      1     26      5       0.000           62.50    
    916      1     26      6       0.000           62.50    
    917      1     26      7       0.000           62.50    
    918      1     26      8       0.000           62.50    
    919      1     26      9       0.000           62.50    
    920      1     26     10       0.000           62.50    
    921      1     26     52       0.000           62.50    
    922      1     26     53       0.000           62.50    
    923      1     26     54       0.000           62.50    
    924      1     26     55       0.000           62.50    
    925      1     26     56       0.000           62.50    
    926      1     26     57       0.000           62.50    
    927      1     26     58       0.000           62.50    
    928      1     26     59       0.000           62.50    
    929      1     26     60       0.000           62.50    
    930      1     26     61       0.000           62.50    
    931      1     27      1       0.000           62.50    
    932      1     27      2       0.000           62.50    
    933      1     27      3       0.000           62.50    
    934      1     27      4       0.000           62.50    
    935      1     27      5       0.000           62.50    
    936      1     27      6       0.000           62.50    
    937      1     27      7       0.000           62.50    
    938      1     27      8       0.000           62.50    
    939      1     27      9       0.000           62.50    
    940      1     27     10       0.000           62.50    
    941      1     27     52       0.000           62.50    
    942      1     27     53       0.000           62.50    
    943      1     27     54       0.000           62.50    
    944      1     27     55       0.000           62.50    
    945      1     27     56       0.000           62.50    
    946      1     27     57       0.000           62.50    
    947      1     27     58       0.000           62.50    
    948      1     27     59       0.000           62.50    
    949      1     27     60       0.000           62.50    
    950      1     27     61       0.000           62.50    
    951      1     28      1       0.000           62.50    
    952      1     28      2       0.000           62.50    
    953      1     28      3       0.000           62.50    
    954      1     28      4       0.000           62.50    
    955      1     28      5       0.000           62.50    
    956      1     28      6       0.000           62.50    
    957      1     28      7       0.000           62.50    
    958      1     28      8       0.000           62.50    
    959      1     28      9       0.000           62.50    
    960      1     28     10       0.000           62.50    
    961      1     28     52       0.000           62.50    
    962      1     28     53       0.000           62.50    
    963      1     28     54       0.000           62.50    
    964      1     28     55       0.000           62.50    
    965      1     28     56       0.000           62.50    
    966      1     28     57       0.000           62.50    
    967      1     28     58       0.000           62.50    
    968      1     28     59       0.000           62.50    
    969      1     28     60       0.000           62.50    
    970      1     28     61       0.000           62.50    
    971      1     29      1       0.000           62.50    
    972      1     29      2       0.000           62.50    
    973      1     29      3       0.000           62.50    
    974      1     29      4       0.000           62.50    
    975      1     29      5       0.000           62.50    
    976      1     29      6       0.000           62.50    
    977      1     29      7       0.000           62.50    
    978      1     29      8       0.000           62.50    
    979      1     29      9       0.000           62.50    
    980      1     29     10       0.000           62.50    
    981      1     29     52       0.000           62.50    
    982      1     29     53       0.000           62.50    
    983      1     29     54       0.000           62.50    
    984      1     29     55       0.000           62.50    
    985      1     29     56       0.000           62.50    
    986      1     29     57       0.000           62.50    
    987      1     29     58       0.000           62.50    
    988      1     29     59       0.000           62.50    
    989      1     29     60       0.000           62.50    
    990      1     29     61       0.000           62.50    
    991      1     30      1       0.000           62.50    
    992      1     30      2       0.000           62.50    
    993      1     30      3       0.000           62.50    
    994      1     30      4       0.000           62.50    
    995      1     30      5       0.000           62.50    
    996      1     30      6       0.000           62.50    
    997      1     30      7       0.000           62.50    
    998      1     30      8       0.000           62.50    
    999      1     30      9       0.000           62.50    
   1000      1     30     10       0.000           62.50    
   1001      1     30     52       0.000           62.50    
   1002      1     30     53       0.000           62.50    
   1003      1     30     54       0.000           62.50    
   1004      1     30     55       0.000           62.50    
   1005      1     30     56       0.000           62.50    
   1006      1     30     57       0.000           62.50    
   1007      1     30     58       0.000           62.50    
   1008      1     30     59       0.000           62.50    
   1009      1     30     60       0.000           62.50    
   1010      1     30     61       0.000           62.50    
   1011      1     31      1       0.000           62.50    
   1012      1     31      2       0.000           62.50    
   1013      1     31      3       0.000           62.50    
   1014      1     31      4       0.000           62.50    
   1015      1     31      5       0.000           62.50    
   1016      1     31      6       0.000           62.50    
   1017      1     31      7       0.000           62.50    
   1018      1     31      8       0.000           62.50    
   1019      1     31      9       0.000           62.50    
   1020      1     31     10       0.000           62.50    
   1021      1     31     52       0.000           62.50    
   1022      1     31     53       0.000           62.50    
   1023      1     31     54       0.000           62.50    
   1024      1     31     55       0.000           62.50    
   1025      1     31     56       0.000           62.50    
   1026      1     31     57       0.000           62.50    
   1027      1     31     58       0.000           62.50    
   1028      1     31     59       0.000           62.50    
   1029      1     31     60       0.000           62.50    
   1030      1     31     61       0.000           62.50    
   1031      1     32      1       0.000           62.50    
   1032      1     32      2       0.000           62.50    
   1033      1     32      3       0.000           62.50    
   1034      1     32      4       0.000           62.50    
   1035      1     32      5       0.000           62.50    
   1036      1     32      6       0.000           62.50    
   1037      1     32      7       0.000           62.50    
   1038      1     32      8       0.000           62.50    
   1039      1     32      9       0.000           62.50    
   1040      1     32     10       0.000           62.50    
   1041      1     32     52       0.000           62.50    
   1042      1     32     53       0.000           62.50    
   1043      1     32     54       0.000           62.50    
   1044      1     32     55       0.000           62.50    
   1045      1     32     56       0.000           62.50    
   1046      1     32     57       0.000           62.50    
   1047      1     32     58       0.000           62.50    
   1048      1     32     59       0.000           62.50    
   1049      1     32     60       0.000           62.50    
   1050      1     32     61       0.000           62.50    
   1051      1     33      1       0.000           62.50    
   1052      1     33      2       0.000           62.50    
   1053      1     33      3       0.000           62.50    
   1054      1     33      4       0.000           62.50    
   1055      1     33      5       0.000           62.50    
   1056      1     33      6       0.000           62.50    
   1057      1     33      7       0.000           62.50    
   1058      1     33      8       0.000           62.50    
   1059      1     33      9       0.000           62.50    
   1060      1     33     10       0.000           62.50    
   1061      1     33     52       0.000           62.50    
   1062      1     33     53       0.000           62.50    
   1063      1     33     54       0.000           62.50    
   1064      1     33     55       0.000           62.50    
   1065      1     33     56       0.000           62.50    
   1066      1     33     57       0.000           62.50    
   1067      1     33     58       0.000           62.50    
   1068      1     33     59       0.000           62.50    
   1069      1     33     60       0.000           62.50    
   1070      1     33     61       0.000           62.50    
   1071      1     34      1       0.000           62.50    
   1072      1     34      2       0.000           62.50    
   1073      1     34      3       0.000           62.50    
   1074      1     34      4       0.000           62.50    
   1075      1     34      5       0.000           62.50    
   1076      1     34      6       0.000           62.50    
   1077      1     34      7       0.000           62.50    
   1078      1     34      8       0.000           62.50    
   1079      1     34      9       0.000           62.50    
   1080      1     34     10       0.000           62.50    
   1081      1     34     52       0.000           62.50    
   1082      1     34     53       0.000           62.50    
   1083      1     34     54       0.000           62.50    
   1084      1     34     55       0.000           62.50    
   1085      1     34     56       0.000           62.50    
   1086      1     34     57       0.000           62.50    
   1087      1     34     58       0.000           62.50    
   1088      1     34     59       0.000           62.50    
   1089      1     34     60       0.000           62.50    
   1090      1     34     61       0.000           62.50    
   1091      1     35      1       0.000           62.50    
   1092      1     35      2       0.000           62.50    
   1093      1     35      3       0.000           62.50    
   1094      1     35      4       0.000           62.50    
   1095      1     35      5       0.000           62.50    
   1096      1     35      6       0.000           62.50    
   1097      1     35      7       0.000           62.50    
   1098      1     35      8       0.000           62.50    
   1099      1     35      9       0.000           62.50    
   1100      1     35     10       0.000           62.50    
   1101      1     35     52       0.000           62.50    
   1102      1     35     53       0.000           62.50    
   1103      1     35     54       0.000           62.50    
   1104      1     35     55       0.000           62.50    
   1105      1     35     56       0.000           62.50    
   1106      1     35     57       0.000           62.50    
   1107      1     35     58       0.000           62.50    
   1108      1     35     59       0.000           62.50    
   1109      1     35     60       0.000           62.50    
   1110      1     35     61       0.000           62.50    
   1111      1     36      1       0.000           62.50    
   1112      1     36      2       0.000           62.50    
   1113      1     36      3       0.000           62.50    
   1114      1     36      4       0.000           62.50    
   1115      1     36      5       0.000           62.50    
   1116      1     36      6       0.000           62.50    
   1117      1     36      7       0.000           62.50    
   1118      1     36      8       0.000           62.50    
   1119      1     36      9       0.000           62.50    
   1120      1     36     10       0.000           62.50    
   1121      1     36     52       0.000           62.50    
   1122      1     36     53       0.000           62.50    
   1123      1     36     54       0.000           62.50    
   1124      1     36     55       0.000           62.50    
   1125      1     36     56       0.000           62.50    
   1126      1     36     57       0.000           62.50    
   1127      1     36     58       0.000           62.50    
   1128      1     36     59       0.000           62.50    
   1129      1     36     60       0.000           62.50    
   1130      1     36     61       0.000           62.50    
   1131      1     37      1       0.000           62.50    
   1132      1     37      2       0.000           62.50    
   1133      1     37      3       0.000           62.50    
   1134      1     37      4       0.000           62.50    
   1135      1     37      5       0.000           62.50    
   1136      1     37      6       0.000           62.50    
   1137      1     37      7       0.000           62.50    
   1138      1     37      8       0.000           62.50    
   1139      1     37      9       0.000           62.50    
   1140      1     37     10       0.000           62.50    
   1141      1     37     52       0.000           62.50    
   1142      1     37     53       0.000           62.50    
   1143      1     37     54       0.000           62.50    
   1144      1     37     55       0.000           62.50    
   1145      1     37     56       0.000           62.50    
   1146      1     37     57       0.000           62.50    
   1147      1     37     58       0.000           62.50    
   1148      1     37     59       0.000           62.50    
   1149      1     37     60       0.000           62.50    
   1150      1     37     61       0.000           62.50    
   1151      1     38      1       0.000           62.50    
   1152      1     38      2       0.000           62.50    
   1153      1     38      3       0.000           62.50    
   1154      1     38      4       0.000           62.50    
   1155      1     38      5       0.000           62.50    
   1156      1     38      6       0.000           62.50    
   1157      1     38      7       0.000           62.50    
   1158      1     38      8       0.000           62.50    
   1159      1     38      9       0.000           62.50    
   1160      1     38     10       0.000           62.50    
   1161      1     38     52       0.000           62.50    
   1162      1     38     53       0.000           62.50    
   1163      1     38     54       0.000           62.50    
   1164      1     38     55       0.000           62.50    
   1165      1     38     56       0.000           62.50    
   1166      1     38     57       0.000           62.50    
   1167      1     38     58       0.000           62.50    
   1168      1     38     59       0.000           62.50    
   1169      1     38     60       0.000           62.50    
   1170      1     38     61       0.000           62.50    
   1171      1     39      1       0.000           62.50    
   1172      1     39      2       0.000           62.50    
   1173      1     39      3       0.000           62.50    
   1174      1     39      4       0.000           62.50    
   1175      1     39      5       0.000           62.50    
   1176      1     39      6       0.000           62.50    
   1177      1     39      7       0.000           62.50    
   1178      1     39      8       0.000           62.50    
   1179      1     39      9       0.000           62.50    
   1180      1     39     10       0.000           62.50    
   1181      1     39     52       0.000           62.50    
   1182      1     39     53       0.000           62.50    
   1183      1     39     54       0.000           62.50    
   1184      1     39     55       0.000           62.50    
   1185      1     39     56       0.000           62.50    
   1186      1     39     57       0.000           62.50    
   1187      1     39     58       0.000           62.50    
   1188      1     39     59       0.000           62.50    
   1189      1     39     60       0.000           62.50    
   1190      1     39     61       0.000           62.50    
   1191      1     40      1       0.000           62.50    
   1192      1     40      2       0.000           62.50    
   1193      1     40      3       0.000           62.50    
   1194      1     40      4       0.000           62.50    
   1195      1     40      5       0.000           62.50    
   1196      1     40      6       0.000           62.50    
   1197      1     40      7       0.000           62.50    
   1198      1     40      8       0.000           62.50    
   1199      1     40      9       0.000           62.50    
   1200      1     40     10       0.000           62.50    
   1201      1     40     52       0.000           62.50    
   1202      1     40     53       0.000           62.50    
   1203      1     40     54       0.000           62.50    
   1204      1     40     55       0.000           62.50    
   1205      1     40     56       0.000           62.50    
   1206      1     40     57       0.000           62.50    
   1207      1     40     58       0.000           62.50    
   1208      1     40     59       0.000           62.50    
   1209      1     40     60       0.000           62.50    
   1210      1     40     61       0.000           62.50    
   1211      1     41      1       0.000           62.50    
   1212      1     41      2       0.000           62.50    
   1213      1     41      3       0.000           62.50    
   1214      1     41      4       0.000           62.50    
   1215      1     41      5       0.000           62.50    
   1216      1     41      6       0.000           62.50    
   1217      1     41      7       0.000           62.50    
   1218      1     41      8       0.000           62.50    
   1219      1     41      9       0.000           62.50    
   1220      1     41     10       0.000           62.50    
   1221      1     41     52       0.000           62.50    
   1222      1     41     53       0.000           62.50    
   1223      1     41     54       0.000           62.50    
   1224      1     41     55       0.000           62.50    
   1225      1     41     56       0.000           62.50    
   1226      1     41     57       0.000           62.50    
   1227      1     41     58       0.000           62.50    
   1228      1     41     59       0.000           62.50    
   1229      1     41     60       0.000           62.50    
   1230      1     41     61       0.000           62.50    
   1231      1     42      1       0.000           62.50    
   1232      1     42      2       0.000           62.50    
   1233      1     42      3       0.000           62.50    
   1234      1     42      4       0.000           62.50    
   1235      1     42      5       0.000           62.50    
   1236      1     42      6       0.000           62.50    
   1237      1     42      7       0.000           62.50    
   1238      1     42      8       0.000           62.50    
   1239      1     42      9       0.000           62.50    
   1240      1     42     10       0.000           62.50    
   1241      1     42     52       0.000           62.50    
   1242      1     42     53       0.000           62.50    
   1243      1     42     54       0.000           62.50    
   1244      1     42     55       0.000           62.50    
   1245      1     42     56       0.000           62.50    
   1246      1     42     57       0.000           62.50    
   1247      1     42     58       0.000           62.50    
   1248      1     42     59       0.000           62.50    
   1249      1     42     60       0.000           62.50    
   1250      1     42     61       0.000           62.50    
   1251      1     43      1       0.000           62.50    
   1252      1     43      2       0.000           62.50    
   1253      1     43      3       0.000           62.50    
   1254      1     43      4       0.000           62.50    
   1255      1     43      5       0.000           62.50    
   1256      1     43      6       0.000           62.50    
   1257      1     43      7       0.000           62.50    
   1258      1     43      8       0.000           62.50    
   1259      1     43      9       0.000           62.50    
   1260      1     43     10       0.000           62.50    
   1261      1     43     52       0.000           62.50    
   1262      1     43     53       0.000           62.50    
   1263      1     43     54       0.000           62.50    
   1264      1     43     55       0.000           62.50    
   1265      1     43     56       0.000           62.50    
   1266      1     43     57       0.000           62.50    
   1267      1     43     58       0.000           62.50    
   1268      1     43     59       0.000           62.50    
   1269      1     43     60       0.000           62.50    
   1270      1     43     61       0.000           62.50    
   1271      1     44      1       0.000           62.50    
   1272      1     44      2       0.000           62.50    
   1273      1     44      3       0.000           62.50    
   1274      1     44      4       0.000           62.50    
   1275      1     44      5       0.000           62.50    
   1276      1     44      6       0.000           62.50    
   1277      1     44      7       0.000           62.50    
   1278      1     44      8       0.000           62.50    
   1279      1     44      9       0.000           62.50    
   1280      1     44     10       0.000           62.50    
   1281      1     44     52       0.000           62.50    
   1282      1     44     53       0.000           62.50    
   1283      1     44     54       0.000           62.50    
   1284      1     44     55       0.000           62.50    
   1285      1     44     56       0.000           62.50    
   1286      1     44     57       0.000           62.50    
   1287      1     44     58       0.000           62.50    
   1288      1     44     59       0.000           62.50    
   1289      1     44     60       0.000           62.50    
   1290      1     44     61       0.000           62.50    
   1291      1     45      1       0.000           62.50    
   1292      1     45      2       0.000           62.50    
   1293      1     45      3       0.000           62.50    
   1294      1     45      4       0.000           62.50    
   1295      1     45      5       0.000           62.50    
   1296      1     45      6       0.000           62.50    
   1297      1     45      7       0.000           62.50    
   1298      1     45      8       0.000           62.50    
   1299      1     45      9       0.000           62.50    
   1300      1     45     10       0.000           62.50    
   1301      1     45     52       0.000           62.50    
   1302      1     45     53       0.000           62.50    
   1303      1     45     54       0.000           62.50    
   1304      1     45     55       0.000           62.50    
   1305      1     45     56       0.000           62.50    
   1306      1     45     57       0.000           62.50    
   1307      1     45     58       0.000           62.50    
   1308      1     45     59       0.000           62.50    
   1309      1     45     60       0.000           62.50    
   1310      1     45     61       0.000           62.50    
   1311      1     46      1       0.000           62.50    
   1312      1     46      2       0.000           62.50    
   1313      1     46      3       0.000           62.50    
   1314      1     46      4       0.000           62.50    
   1315      1     46      5       0.000           62.50    
   1316      1     46      6       0.000           62.50    
   1317      1     46      7       0.000           62.50    
   1318      1     46      8       0.000           62.50    
   1319      1     46      9       0.000           62.50    
   1320      1     46     10       0.000           62.50    
   1321      1     46     52       0.000           62.50    
   1322      1     46     53       0.000           62.50    
   1323      1     46     54       0.000           62.50    
   1324      1     46     55       0.000           62.50    
   1325      1     46     56       0.000           62.50    
   1326      1     46     57       0.000           62.50    
   1327      1     46     58       0.000           62.50    
   1328      1     46     59       0.000           62.50    
   1329      1     46     60       0.000           62.50    
   1330      1     46     61       0.000           62.50    
   1331      1     47      1       0.000           62.50    
   1332      1     47      2       0.000           62.50    
   1333      1     47      3       0.000           62.50    
   1334      1     47      4       0.000           62.50    
   1335      1     47      5       0.000           62.50    
   1336      1     47      6       0.000           62.50    
   1337      1     47      7       0.000           62.50    
   1338      1     47      8       0.000           62.50    
   1339      1     47      9       0.000           62.50    
   1340      1     47     10       0.000           62.50    
   1341      1     47     52       0.000           62.50    
   1342      1     47     53       0.000           62.50    
   1343      1     47     54       0.000           62.50    
   1344      1     47     55       0.000           62.50    
   1345      1     47     56       0.000           62.50    
   1346      1     47     57       0.000           62.50    
   1347      1     47     58       0.000           62.50    
   1348      1     47     59       0.000           62.50    
   1349      1     47     60       0.000           62.50    
   1350      1     47     61       0.000           62.50    
   1351      1     48      1       0.000           62.50    
   1352      1     48      2       0.000           62.50    
   1353      1     48      3       0.000           62.50    
   1354      1     48      4       0.000           62.50    
   1355      1     48      5       0.000           62.50    
   1356      1     48      6       0.000           62.50    
   1357      1     48      7       0.000           62.50    
   1358      1     48      8       0.000           62.50    
   1359      1     48      9       0.000           62.50    
   1360      1     48     10       0.000           62.50    
   1361      1     48     52       0.000           62.50    
   1362      1     48     53       0.000           62.50    
   1363      1     48     54       0.000           62.50    
   1364      1     48     55       0.000           62.50    
   1365      1     48     56       0.000           62.50    
   1366      1     48     57       0.000           62.50    
   1367      1     48     58       0.000           62.50    
   1368      1     48     59       0.000           62.50    
   1369      1     48     60       0.000           62.50    
   1370      1     48     61       0.000           62.50    
   1371      1     49      1       0.000           62.50    
   1372      1     49      2       0.000           62.50    
   1373      1     49      3       0.000           62.50    
   1374      1     49      4       0.000           62.50    
   1375      1     49      5       0.000           62.50    
   1376      1     49      6       0.000           62.50    
   1377      1     49      7       0.000           62.50    
   1378      1     49      8       0.000           62.50    
   1379      1     49      9       0.000           62.50    
   1380      1     49     10       0.000           62.50    
   1381      1     49     52       0.000           62.50    
   1382      1     49     53       0.000           62.50    
   1383      1     49     54       0.000           62.50    
   1384      1     49     55       0.000           62.50    
   1385      1     49     56       0.000           62.50    
   1386      1     49     57       0.000           62.50    
   1387      1     49     58       0.000           62.50    
   1388      1     49     59       0.000           62.50    
   1389      1     49     60       0.000           62.50    
   1390      1     49     61       0.000           62.50    
   1391      1     50      1       0.000           62.50    
   1392      1     50      2       0.000           62.50    
   1393      1     50      3       0.000           62.50    
   1394      1     50      4       0.000           62.50    
   1395      1     50      5       0.000           62.50    
   1396      1     50      6       0.000           62.50    
   1397      1     50      7       0.000           62.50    
   1398      1     50      8       0.000           62.50    
   1399      1     50      9       0.000           62.50    
   1400      1     50     10       0.000           62.50    
   1401      1     50     52       0.000           62.50    
   1402      1     50     53       0.000           62.50    
   1403      1     50     54       0.000           62.50    
   1404      1     50     55       0.000           62.50    
   1405      1     50     56       0.000           62.50    
   1406      1     50     57       0.000           62.50    
   1407      1     50     58       0.000           62.50    
   1408      1     50     59       0.000           62.50    
   1409      1     50     60       0.000           62.50    
   1410      1     50     61       0.000           62.50    
   1411      1     51      1       0.000           62.50    
   1412      1     51      2       0.000           62.50    
   1413      1     51      3       0.000           62.50    
   1414      1     51      4       0.000           62.50    
   1415      1     51      5       0.000           62.50    
   1416      1     51      6       0.000           62.50    
   1417      1     51      7       0.000           62.50    
   1418      1     51      8       0.000           62.50    
   1419      1     51      9       0.000           62.50    
   1420      1     51     10       0.000           62.50    
   1421      1     51     52       0.000           62.50    
   1422      1     51     53       0.000           62.50    
   1423      1     51     54       0.000           62.50    
   1424      1     51     55       0.000           62.50    
   1425      1     51     56       0.000           62.50    
   1426      1     51     57       0.000           62.50    
   1427      1     51     58       0.000           62.50    
   1428      1     51     59       0.000           62.50    
   1429      1     51     60       0.000           62.50    
   1430      1     51     61       0.000           62.50    
   1431      1     52      1       0.000           62.50    
   1432      1     52      2       0.000           62.50    
   1433      1     52      3       0.000           62.50    
   1434      1     52      4       0.000           62.50    
   1435      1     52      5       0.000           62.50    
   1436      1     52      6       0.000           62.50    
   1437      1     52      7       0.000           62.50    
   1438      1     52      8       0.000           62.50    
   1439      1     52      9       0.000           62.50    
   1440      1     52     10       0.000           62.50    
   1441      1     52     11       0.000           62.50    
   1442      1     52     12       0.000           62.50    
   1443      1     52     13       0.000           62.50    
   1444      1     52     14       0.000           62.50    
   1445      1     52     15       0.000           62.50    
   1446      1     52     16       0.000           62.50    
   1447      1     52     17       0.000           62.50    
   1448      1     52     18       0.000           62.50    
   1449      1     52     19       0.000           62.50    
   1450      1     52     20       0.000           62.50    
   1451      1     52     21       0.000           62.50    
   1452      1     52     22       0.000           62.50    
   1453      1     52     23       0.000           62.50    
   1454      1     52     24       0.000           62.50    
   1455      1     52     25       0.000           62.50    
   1456      1     52     26       0.000           62.50    
   1457      1     52     27       0.000           62.50    
   1458      1     52     28       0.000           62.50    
   1459      1     52     29       0.000           62.50    
   1460      1     52     30       0.000           62.50    
   1461      1     52     31       0.000           62.50    
   1462      1     52     32       0.000           62.50    
   1463      1     52     33       0.000           62.50    
   1464      1     52     34       0.000           62.50    
   1465      1     52     35       0.000           62.50    
   1466      1     52     36       0.000           62.50    
   1467      1     52     37       0.000           62.50    
   1468      1     52     38       0.000           62.50    
   1469      1     52     39       0.000           62.50    
   1470      1     52     40       0.000           62.50    
   1471      1     52     41       0.000           62.50    
   1472      1     52     42       0.000           62.50    
   1473      1     52     43       0.000           62.50    
   1474      1     52     44       0.000           62.50    
   1475      1     52     45       0.000           62.50    
   1476      1     52     46       0.000           62.50    
   1477      1     52     47       0.000           62.50    
   1478      1     52     48       0.000           62.50    
   1479      1     52     49       0.000           62.50    
   1480      1     52     50       0.000           62.50    
   1481      1     52     51       0.000           62.50    
   1482      1     52     52       0.000           62.50    
   1483      1     52     53       0.000           62.50    
   1484      1     52     54       0.000           62.50    
   1485      1     52     55       0.000           62.50    
   1486      1     52     56       0.000           62.50    
   1487      1     52     57       0.000           62.50    
   1488      1     52     58       0.000           62.50    
   1489      1     52     59       0.000           62.50    
   1490      1     52     60       0.000           62.50    
   1491      1     52     61       0.000           62.50    
   1492      1     53      1       0.000           62.50    
   1493      1     53      2       0.000           62.50    
   1494      1     53      3       0.000           62.50    
   1495      1     53      4       0.000           62.50    
   1496      1     53      5       0.000           62.50    
   1497      1     53      6       0.000           62.50    
   1498      1     53      7       0.000           62.50    
   1499      1     53      8       0.000           62.50    
   1500      1     53      9       0.000           62.50    
   1501      1     53     10       0.000           62.50    
   1502      1     53     11       0.000           62.50    
   1503      1     53     12       0.000           62.50    
   1504      1     53     13       0.000           62.50    
   1505      1     53     14       0.000           62.50    
   1506      1     53     15       0.000           62.50    
   1507      1     53     16       0.000           62.50    
   1508      1     53     17       0.000           62.50    
   1509      1     53     18       0.000           62.50    
   1510      1     53     19       0.000           62.50    
   1511      1     53     20       0.000           62.50    
   1512      1     53     21       0.000           62.50    
   1513      1     53     22       0.000           62.50    
   1514      1     53     23       0.000           62.50    
   1515      1     53     24       0.000           62.50    
   1516      1     53     25       0.000           62.50    
   1517      1     53     26       0.000           62.50    
   1518      1     53     27       0.000           62.50    
   1519      1     53     28       0.000           62.50    
   1520      1     53     29       0.000           62.50    
   1521      1     53     30       0.000           62.50    
   1522      1     53     31       0.000           62.50    
   1523      1     53     32       0.000           62.50    
   1524      1     53     33       0.000           62.50    
   1525      1     53     34       0.000           62.50    
   1526      1     53     35       0.000           62.50    
   1527      1     53     36       0.000           62.50    
   1528      1     53     37       0.000           62.50    
   1529      1     53     38       0.000           62.50    
   1530      1     53     39       0.000           62.50    
   1531      1     53     40       0.000           62.50    
   1532      1     53     41       0.000           62.50    
   1533      1     53     42       0.000           62.50    
   1534      1     53     43       0.000           62.50    
   1535      1     53     44       0.000           62.50    
   1536      1     53     45       0.000           62.50    
   1537      1     53     46       0.000           62.50    
   1538      1     53     47       0.000           62.50    
   1539      1     53     48       0.000           62.50    
   1540      1     53     49       0.000           62.50    
   1541      1     53     50       0.000           62.50    
   1542      1     53     51       0.000           62.50    
   1543      1     53     52       0.000           62.50    
   1544      1     53     53       0.000           62.50    
   1545      1     53     54       0.000           62.50    
   1546      1     53     55       0.000           62.50    
   1547      1     53     56       0.000           62.50    
   1548      1     53     57       0.000           62.50    
   1549      1     53     58       0.000           62.50    
   1550      1     53     59       0.000           62.50    
   1551      1     53     60       0.000           62.50    
   1552      1     53     61       0.000           62.50    
   1553      1     54      1       0.000           62.50    
   1554      1     54      2       0.000           62.50    
   1555      1     54      3       0.000           62.50    
   1556      1     54      4       0.000           62.50    
   1557      1     54      5       0.000           62.50    
   1558      1     54      6       0.000           62.50    
   1559      1     54      7       0.000           62.50    
   1560      1     54      8       0.000           62.50    
   1561      1     54      9       0.000           62.50    
   1562      1     54     10       0.000           62.50    
   1563      1     54     11       0.000           62.50    
   1564      1     54     12       0.000           62.50    
   1565      1     54     13       0.000           62.50    
   1566      1     54     14       0.000           62.50    
   1567      1     54     15       0.000           62.50    
   1568      1     54     16       0.000           62.50    
   1569      1     54     17       0.000           62.50    
   1570      1     54     18       0.000           62.50    
   1571      1     54     19       0.000           62.50    
   1572      1     54     20       0.000           62.50    
   1573      1     54     21       0.000           62.50    
   1574      1     54     22       0.000           62.50    
   1575      1     54     23       0.000           62.50    
   1576      1     54     24       0.000           62.50    
   1577      1     54     25       0.000           62.50    
   1578      1     54     26       0.000           62.50    
   1579      1     54     27       0.000           62.50    
   1580      1     54     28       0.000           62.50    
   1581      1     54     29       0.000           62.50    
   1582      1     54     30       0.000           62.50    
   1583      1     54     31       0.000           62.50    
   1584      1     54     32       0.000           62.50    
   1585      1     54     33       0.000           62.50    
   1586      1     54     34       0.000           62.50    
   1587      1     54     35       0.000           62.50    
   1588      1     54     36       0.000           62.50    
   1589      1     54     37       0.000           62.50    
   1590      1     54     38       0.000           62.50    
   1591      1     54     39       0.000           62.50    
   1592      1     54     40       0.000           62.50    
   1593      1     54     41       0.000           62.50    
   1594      1     54     42       0.000           62.50    
   1595      1     54     43       0.000           62.50    
   1596      1     54     44       0.000           62.50    
   1597      1     54     45       0.000           62.50    
   1598      1     54     46       0.000           62.50    
   1599      1     54     47       0.000           62.50    
   1600      1     54     48       0.000           62.50    
   1601      1     54     49       0.000           62.50    
   1602      1     54     50       0.000           62.50    
   1603      1     54     51       0.000           62.50    
   1604      1     54     52       0.000           62.50    
   1605      1     54     53       0.000           62.50    
   1606      1     54     54       0.000           62.50    
   1607      1     54     55       0.000           62.50    
   1608      1     54     56       0.000           62.50    
   1609      1     54     57       0.000           62.50    
   1610      1     54     58       0.000           62.50    
   1611      1     54     59       0.000           62.50    
   1612      1     54     60       0.000           62.50    
   1613      1     54     61       0.000           62.50    
   1614      1     55      1       0.000           62.50    
   1615      1     55      2       0.000           62.50    
   1616      1     55      3       0.000           62.50    
   1617      1     55      4       0.000           62.50    
   1618      1     55      5       0.000           62.50    
   1619      1     55      6       0.000           62.50    
   1620      1     55      7       0.000           62.50    
   1621      1     55      8       0.000           62.50    
   1622      1     55      9       0.000           62.50    
   1623      1     55     10       0.000           62.50    
   1624      1     55     11       0.000           62.50    
   1625      1     55     12       0.000           62.50    
   1626      1     55     13       0.000           62.50    
   1627      1     55     14       0.000           62.50    
   1628      1     55     15       0.000           62.50    
   1629      1     55     16       0.000           62.50    
   1630      1     55     17       0.000           62.50    
   1631      1     55     18       0.000           62.50    
   1632      1     55     19       0.000           62.50    
   1633      1     55     20       0.000           62.50    
   1634      1     55     21       0.000           62.50    
   1635      1     55     22       0.000           62.50    
   1636      1     55     23       0.000           62.50    
   1637      1     55     24       0.000           62.50    
   1638      1     55     25       0.000           62.50    
   1639      1     55     26       0.000           62.50    
   1640      1     55     27       0.000           62.50    
   1641      1     55     28       0.000           62.50    
   1642      1     55     29       0.000           62.50    
   1643      1     55     30       0.000           62.50    
   1644      1     55     31       0.000           62.50    
   1645      1     55     32       0.000           62.50    
   1646      1     55     33       0.000           62.50    
   1647      1     55     34       0.000           62.50    
   1648      1     55     35       0.000           62.50    
   1649      1     55     36       0.000           62.50    
   1650      1     55     37       0.000           62.50    
   1651      1     55     38       0.000           62.50    
   1652      1     55     39       0.000           62.50    
   1653      1     55     40       0.000           62.50    
   1654      1     55     41       0.000           62.50    
   1655      1     55     42       0.000           62.50    
   1656      1     55     43       0.000           62.50    
   1657      1     55     44       0.000           62.50    
   1658      1     55     45       0.000           62.50    
   1659      1     55     46       0.000           62.50    
   1660      1     55     47       0.000           62.50    
   1661      1     55     48       0.000           62.50    
   1662      1     55     49       0.000           62.50    
   1663      1     55     50       0.000           62.50    
   1664      1     55     51       0.000           62.50    
   1665      1     55     52       0.000           62.50    
   1666      1     55     53       0.000           62.50    
   1667      1     55     54       0.000           62.50    
   1668      1     55     55       0.000           62.50    
   1669      1     55     56       0.000           62.50    
   1670      1     55     57       0.000           62.50    
   1671      1     55     58       0.000           62.50    
   1672      1     55     59       0.000           62.50    
   1673      1     55     60       0.000           62.50    
   1674      1     55     61       0.000           62.50    
   1675      1     56      1       0.000           62.50    
   1676      1     56      2       0.000           62.50    
   1677      1     56      3       0.000           62.50    
   1678      1     56      4       0.000           62.50    
   1679      1     56      5       0.000           62.50    
   1680      1     56      6       0.000           62.50    
   1681      1     56      7       0.000           62.50    
   1682      1     56      8       0.000           62.50    
   1683      1     56      9       0.000           62.50    
   1684      1     56     10       0.000           62.50    
   1685      1     56     11       0.000           62.50    
   1686      1     56     12       0.000           62.50    
   1687      1     56     13       0.000           62.50    
   1688      1     56     14       0.000           62.50    
   1689      1     56     15       0.000           62.50    
   1690      1     56     16       0.000           62.50    
   1691      1     56     17       0.000           62.50    
   1692      1     56     18       0.000           62.50    
   1693      1     56     19       0.000           62.50    
   1694      1     56     20       0.000           62.50    
   1695      1     56     21       0.000           62.50    
   1696      1     56     22       0.000           62.50    
   1697      1     56     23       0.000           62.50    
   1698      1     56     24       0.000           62.50    
   1699      1     56     25       0.000           62.50    
   1700      1     56     26       0.000           62.50    
   1701      1     56     27       0.000           62.50    
   1702      1     56     28       0.000           62.50    
   1703      1     56     29       0.000           62.50    
   1704      1     56     30       0.000           62.50    
   1705      1     56     31       0.000           62.50    
   1706      1     56     32       0.000           62.50    
   1707      1     56     33       0.000           62.50    
   1708      1     56     34       0.000           62.50    
   1709      1     56     35       0.000           62.50    
   1710      1     56     36       0.000           62.50    
   1711      1     56     37       0.000           62.50    
   1712      1     56     38       0.000           62.50    
   1713      1     56     39       0.000           62.50    
   1714      1     56     40       0.000           62.50    
   1715      1     56     41       0.000           62.50    
   1716      1     56     42       0.000           62.50    
   1717      1     56     43       0.000           62.50    
   1718      1     56     44       0.000           62.50    
   1719      1     56     45       0.000           62.50    
   1720      1     56     46       0.000           62.50    
   1721      1     56     47       0.000           62.50    
   1722      1     56     48       0.000           62.50    
   1723      1     56     49       0.000           62.50    
   1724      1     56     50       0.000           62.50    
   1725      1     56     51       0.000           62.50    
   1726      1     56     52       0.000           62.50    
   1727      1     56     53       0.000           62.50    
   1728      1     56     54       0.000           62.50    
   1729      1     56     55       0.000           62.50    
   1730      1     56     56       0.000           62.50    
   1731      1     56     57       0.000           62.50    
   1732      1     56     58       0.000           62.50    
   1733      1     56     59       0.000           62.50    
   1734      1     56     60       0.000           62.50    
   1735      1     56     61       0.000           62.50    
   1736      1     57      1       0.000           62.50    
   1737      1     57      2       0.000           62.50    
   1738      1     57      3       0.000           62.50    
   1739      1     57      4       0.000           62.50    
   1740      1     57      5       0.000           62.50    
   1741      1     57      6       0.000           62.50    
   1742      1     57      7       0.000           62.50    
   1743      1     57      8       0.000           62.50    
   1744      1     57      9       0.000           62.50    
   1745      1     57     10       0.000           62.50    
   1746      1     57     11       0.000           62.50    
   1747      1     57     12       0.000           62.50    
   1748      1     57     13       0.000           62.50    
   1749      1     57     14       0.000           62.50    
   1750      1     57     15       0.000           62.50    
   1751      1     57     16       0.000           62.50    
   1752      1     57     17       0.000           62.50    
   1753      1     57     18       0.000           62.50    
   1754      1     57     19       0.000           62.50    
   1755      1     57     20       0.000           62.50    
   1756      1     57     21       0.000           62.50    
   1757      1     57     22       0.000           62.50    
   1758      1     57     23       0.000           62.50    
   1759      1     57     24       0.000           62.50    
   1760      1     57     25       0.000           62.50    
   1761      1     57     26       0.000           62.50    
   1762      1     57     27       0.000           62.50    
   1763      1     57     28       0.000           62.50    
   1764      1     57     29       0.000           62.50    
   1765      1     57     30       0.000           62.50    
   1766      1     57     31       0.000           62.50    
   1767      1     57     32       0.000           62.50    
   1768      1     57     33       0.000           62.50    
   1769      1     57     34       0.000           62.50    
   1770      1     57     35       0.000           62.50    
   1771      1     57     36       0.000           62.50    
   1772      1     57     37       0.000           62.50    
   1773      1     57     38       0.000           62.50    
   1774      1     57     39       0.000           62.50    
   1775      1     57     40       0.000           62.50    
   1776      1     57     41       0.000           62.50    
   1777      1     57     42       0.000           62.50    
   1778      1     57     43       0.000           62.50    
   1779      1     57     44       0.000           62.50    
   1780      1     57     45       0.000           62.50    
   1781      1     57     46       0.000           62.50    
   1782      1     57     47       0.000           62.50    
   1783      1     57     48       0.000           62.50    
   1784      1     57     49       0.000           62.50    
   1785      1     57     50       0.000           62.50    
   1786      1     57     51       0.000           62.50    
   1787      1     57     52       0.000           62.50    
   1788      1     57     53       0.000           62.50    
   1789      1     57     54       0.000           62.50    
   1790      1     57     55       0.000           62.50    
   1791      1     57     56       0.000           62.50    
   1792      1     57     57       0.000           62.50    
   1793      1     57     58       0.000           62.50    
   1794      1     57     59       0.000           62.50    
   1795      1     57     60       0.000           62.50    
   1796      1     57     61       0.000           62.50    
   1797      1     58      1       0.000           62.50    
   1798      1     58      2       0.000           62.50    
   1799      1     58      3       0.000           62.50    
   1800      1     58      4       0.000           62.50    
   1801      1     58      5       0.000           62.50    
   1802      1     58      6       0.000           62.50    
   1803      1     58      7       0.000           62.50    
   1804      1     58      8       0.000           62.50    
   1805      1     58      9       0.000           62.50    
   1806      1     58     10       0.000           62.50    
   1807      1     58     11       0.000           62.50    
   1808      1     58     12       0.000           62.50    
   1809      1     58     13       0.000           62.50    
   1810      1     58     14       0.000           62.50    
   1811      1     58     15       0.000           62.50    
   1812      1     58     16       0.000           62.50    
   1813      1     58     17       0.000           62.50    
   1814      1     58     18       0.000           62.50    
   1815      1     58     19       0.000           62.50    
   1816      1     58     20       0.000           62.50    
   1817      1     58     21       0.000           62.50    
   1818      1     58     22       0.000           62.50    
   1819      1     58     23       0.000           62.50    
   1820      1     58     24       0.000           62.50    
   1821      1     58     25       0.000           62.50    
   1822      1     58     26       0.000           62.50    
   1823      1     58     27       0.000           62.50    
   1824      1     58     28       0.000           62.50    
   1825      1     58     29       0.000           62.50    
   1826      1     58     30       0.000           62.50    
   1827      1     58     31       0.000           62.50    
   1828      1     58     32       0.000           62.50    
   1829      1     58     33       0.000           62.50    
   1830      1     58     34       0.000           62.50    
   1831      1     58     35       0.000           62.50    
   1832      1     58     36       0.000           62.50    
   1833      1     58     37       0.000           62.50    
   1834      1     58     38       0.000           62.50    
   1835      1     58     39       0.000           62.50    
   1836      1     58     40       0.000           62.50    
   1837      1     58     41       0.000           62.50    
   1838      1     58     42       0.000           62.50    
   1839      1     58     43       0.000           62.50    
   1840      1     58     44       0.000           62.50    
   1841      1     58     45       0.000           62.50    
   1842      1     58     46       0.000           62.50    
   1843      1     58     47       0.000           62.50    
   1844      1     58     48       0.000           62.50    
   1845      1     58     49       0.000           62.50    
   1846      1     58     50       0.000           62.50    
   1847      1     58     51       0.000           62.50    
   1848      1     58     52       0.000           62.50    
   1849      1     58     53       0.000           62.50    
   1850      1     58     54       0.000           62.50    
   1851      1     58     55       0.000           62.50    
   1852      1     58     56       0.000           62.50    
   1853      1     58     57       0.000           62.50    
   1854      1     58     58       0.000           62.50    
   1855      1     58     59       0.000           62.50    
   1856      1     58     60       0.000           62.50    
   1857      1     58     61       0.000           62.50    
   1858      1     59      1       0.000           62.50    
   1859      1     59      2       0.000           62.50    
   1860      1     59      3       0.000           62.50    
   1861      1     59      4       0.000           62.50    
   1862      1     59      5       0.000           62.50    
   1863      1     59      6       0.000           62.50    
   1864      1     59      7       0.000           62.50    
   1865      1     59      8       0.000           62.50    
   1866      1     59      9       0.000           62.50    
   1867      1     59     10       0.000           62.50    
   1868      1     59     11       0.000           62.50    
   1869      1     59     12       0.000           62.50    
   1870      1     59     13       0.000           62.50    
   1871      1     59     14       0.000           62.50    
   1872      1     59     15       0.000           62.50    
   1873      1     59     16       0.000           62.50    
   1874      1     59     17       0.000           62.50    
   1875      1     59     18       0.000           62.50    
   1876      1     59     19       0.000           62.50    
   1877      1     59     20       0.000           62.50    
   1878      1     59     21       0.000           62.50    
   1879      1     59     22       0.000           62.50    
   1880      1     59     23       0.000           62.50    
   1881      1     59     24       0.000           62.50    
   1882      1     59     25       0.000           62.50    
   1883      1     59     26       0.000           62.50    
   1884      1     59     27       0.000           62.50    
   1885      1     59     28       0.000           62.50    
   1886      1     59     29       0.000           62.50    
   1887      1     59     30       0.000           62.50    
   1888      1     59     31       0.000           62.50    
   1889      1     59     32       0.000           62.50    
   1890      1     59     33       0.000           62.50    
   1891      1     59     34       0.000           62.50    
   1892      1     59     35       0.000           62.50    
   1893      1     59     36       0.000           62.50    
   1894      1     59     37       0.000           62.50    
   1895      1     59     38       0.000           62.50    
   1896      1     59     39       0.000           62.50    
   1897      1     59     40       0.000           62.50    
   1898      1     59     41       0.000           62.50    
   1899      1     59     42       0.000           62.50    
   1900      1     59     43       0.000           62.50    
   1901      1     59     44       0.000           62.50    
   1902      1     59     45       0.000           62.50    
   1903      1     59     46       0.000           62.50    
   1904      1     59     47       0.000           62.50    
   1905      1     59     48       0.000           62.50    
   1906      1     59     49       0.000           62.50    
   1907      1     59     50       0.000           62.50    
   1908      1     59     51       0.000           62.50    
   1909      1     59     52       0.000           62.50    
   1910      1     59     53       0.000           62.50    
   1911      1     59     54       0.000           62.50    
   1912      1     59     55       0.000           62.50    
   1913      1     59     56       0.000           62.50    
   1914      1     59     57       0.000           62.50    
   1915      1     59     58       0.000           62.50    
   1916      1     59     59       0.000           62.50    
   1917      1     59     60       0.000           62.50    
   1918      1     59     61       0.000           62.50    
   1919      1     60      1       0.000           62.50    
   1920      1     60      2       0.000           62.50    
   1921      1     60      3       0.000           62.50    
   1922      1     60      4       0.000           62.50    
   1923      1     60      5       0.000           62.50    
   1924      1     60      6       0.000           62.50    
   1925      1     60      7       0.000           62.50    
   1926      1     60      8       0.000           62.50    
   1927      1     60      9       0.000           62.50    
   1928      1     60     10       0.000           62.50    
   1929      1     60     11       0.000           62.50    
   1930      1     60     12       0.000           62.50    
   1931      1     60     13       0.000           62.50    
   1932      1     60     14       0.000           62.50    
   1933      1     60     15       0.000           62.50    
   1934      1     60     16       0.000           62.50    
   1935      1     60     17       0.000           62.50    
   1936      1     60     18       0.000           62.50    
   1937      1     60     19       0.000           62.50    
   1938      1     60     20       0.000           62.50    
   1939      1     60     21       0.000           62.50    
   1940      1     60     22       0.000           62.50    
   1941      1     60     23       0.000           62.50    
   1942      1     60     24       0.000           62.50    
   1943      1     60     25       0.000           62.50    
   1944      1     60     26       0.000           62.50    
   1945      1     60     27       0.000           62.50    
   1946      1     60     28       0.000           62.50    
   1947      1     60     29       0.000           62.50    
   1948      1     60     30       0.000           62.50    
   1949      1     60     31       0.000           62.50    
   1950      1     60     32       0.000           62.50    
   1951      1     60     33       0.000           62.50    
   1952      1     60     34       0.000           62.50    
   1953      1     60     35       0.000           62.50    
   1954      1     60     36       0.000           62.50    
   1955      1     60     37       0.000           62.50    
   1956      1     60     38       0.000           62.50    
   1957      1     60     39       0.000           62.50    
   1958      1     60     40       0.000           62.50    
   1959      1     60     41       0.000           62.50    
   1960      1     60     42       0.000           62.50    
   1961      1     60     43       0.000           62.50    
   1962      1     60     44       0.000           62.50    
   1963      1     60     45       0.000           62.50    
   1964      1     60     46       0.000           62.50    
   1965      1     60     47       0.000           62.50    
   1966      1     60     48       0.000           62.50    
   1967      1     60     49       0.000           62.50    
   1968      1     60     50       0.000           62.50    
   1969      1     60     51       0.000           62.50    
   1970      1     60     52       0.000           62.50    
   1971      1     60     53       0.000           62.50    
   1972      1     60     54       0.000           62.50    
   1973      1     60     55       0.000           62.50    
   1974      1     60     56       0.000           62.50    
   1975      1     60     57       0.000           62.50    
   1976      1     60     58       0.000           62.50    
   1977      1     60     59       0.000           62.50    
   1978      1     60     60       0.000           62.50    
   1979      1     60     61       0.000           62.50    
   1980      1     61      1       0.000           62.50    
   1981      1     61      2       0.000           62.50    
   1982      1     61      3       0.000           62.50    
   1983      1     61      4       0.000           62.50    
   1984      1     61      5       0.000           62.50    
   1985      1     61      6       0.000           62.50    
   1986      1     61      7       0.000           62.50    
   1987      1     61      8       0.000           62.50    
   1988      1     61      9       0.000           62.50    
   1989      1     61     10       0.000           62.50    
   1990      1     61     11       0.000           62.50    
   1991      1     61     12       0.000           62.50    
   1992      1     61     13       0.000           62.50    
   1993      1     61     14       0.000           62.50    
   1994      1     61     15       0.000           62.50    
   1995      1     61     16       0.000           62.50    
   1996      1     61     17       0.000           62.50    
   1997      1     61     18       0.000           62.50    
   1998      1     61     19       0.000           62.50    
   1999      1     61     20       0.000           62.50    
   2000      1     61     21       0.000           62.50    
   2001      1     61     22       0.000           62.50    
   2002      1     61     23       0.000           62.50    
   2003      1     61     24       0.000           62.50    
   2004      1     61     25       0.000           62.50    
   2005      1     61     26       0.000           62.50    
   2006      1     61     27       0.000           62.50    
   2007      1     61     28       0.000           62.50    
   2008      1     61     29       0.000           62.50    
   2009      1     61     30       0.000           62.50    
   2010      1     61     31       0.000           62.50    
   2011      1     61     32       0.000           62.50    
   2012      1     61     33       0.000           62.50    
   2013      1     61     34       0.000           62.50    
   2014      1     61     35       0.000           62.50    
   2015      1     61     36       0.000           62.50    
   2016      1     61     37       0.000           62.50    
   2017      1     61     38       0.000           62.50    
   2018      1     61     39       0.000           62.50    
   2019      1     61     40       0.000           62.50    
   2020      1     61     41       0.000           62.50    
   2021      1     61     42       0.000           62.50    
   2022      1     61     43       0.000           62.50    
   2023      1     61     44       0.000           62.50    
   2024      1     61     45       0.000           62.50    
   2025      1     61     46       0.000           62.50    
   2026      1     61     47       0.000           62.50    
   2027      1     61     48       0.000           62.50    
   2028      1     61     49       0.000           62.50    
   2029      1     61     50       0.000           62.50    
   2030      1     61     51       0.000           62.50    
   2031      1     61     52       0.000           62.50    
   2032      1     61     53       0.000           62.50    
   2033      1     61     54       0.000           62.50    
   2034      1     61     55       0.000           62.50    
   2035      1     61     56       0.000           62.50    
   2036      1     61     57       0.000           62.50    
   2037      1     61     58       0.000           62.50    
   2038      1     61     59       0.000           62.50    
   2039      1     61     60       0.000           62.50    
   2040      1     61     61       0.000           62.50    

   2040 GHB CELLS



                           RECHARGE
 READING ON UNIT   19 WITH FORMAT: (61G15.6)           

 SOLVING FOR HEAD 

 NO OUTPUT CONTROL FOR STRESS PERIOD    1   TIME STEP    1
 SOLVING FOR ZETA FOR LAYER     1 ZONE     2

     841 UPPER PART EQS.       840 LOWER PART EQS.    BAND WIDTH + 1 =   42
 STRESS PERIOD=  1 TIMESTEP=  1 LAYER=  1 ZONE=  2 ACTIVE CELLS= 1681 NUMBER OF EQUATIONS=    1681

 SOLVING FOR HEAD 

 NO OUTPUT CONTROL FOR STRESS PERIOD    1   TIME STEP    2
 SOLVING FOR ZETA FOR LAYER     1 ZONE     2

     921 UPPER PART EQS.       924 LOWER PART EQS.    BAND WIDTH + 1 =   44
 STRESS PERIOD=  1 TIMESTEP=  2 LAYER=  1 ZONE=  2 ACTIVE CELLS= 1845 NUMBER OF EQUATIONS=    1845

 SOLVING FOR HEAD 

 NO OUTPUT CONTROL FOR STRESS PERIOD    1   TIME STEP    3
 SOLVING FOR ZETA FOR LAYER     1 ZONE     2

     841 UPPER PART EQS.       840 LOWER PART EQS.    BAND WIDTH + 1 =   42
 STRESS PERIOD=  1 TIMESTEP=  3 LAYER=  1 ZONE=  2 ACTIVE CELLS= 1681 NUMBER OF EQUATIONS=    1681

 SOLVING FOR HEAD 

 NO OUTPUT CONTROL FOR STRESS PERIOD    1   TIME STEP    4
 SOLVING FOR ZETA FOR LAYER     1 ZONE     2

     921 UPPER PART EQS.       924 LOWER PART EQS.    BAND WIDTH + 1 =   44
 STRESS PERIOD=  1 TIMESTEP=  4 LAYER=  1 ZONE=  2 ACTIVE CELLS= 1845 NUMBER OF EQUATIONS=    1845

 SOLVING FOR HEAD 

 NO OUTPUT CONTROL FOR STRESS PERIOD    1   TIME STEP    5
 SOLVING FOR ZETA FOR LAYER     1 ZONE     2

     841 UPPER PART EQS.       840 LOWER PART EQS.    BAND WIDTH + 1 =   42
 STRESS PERIOD=  1 TIMESTEP=  5 LAYER=  1 ZONE=  2 ACTIVE CELLS= 1681 NUMBER OF EQUATIONS=    1681

 SOLVING FOR HEAD 

 NO OUTPUT CONTROL FOR STRESS PERIOD    1   TIME STEP    6
 SOLVING FOR ZETA FOR LAYER     1 ZONE     2

     921 UPPER PART EQS.       924 LOWER PART EQS.    BAND WIDTH + 1 =   44
 STRESS PERIOD=  1 TIMESTEP=  6 LAYER=  1 ZONE=  2 ACTIVE CELLS= 1845 NUMBER OF EQUATIONS=    1845

 SOLVING FOR HEAD 

 NO OUTPUT CONTROL FOR STRESS PERIOD    1   TIME STEP    7
 SOLVING FOR ZETA FOR LAYER     1 ZONE     2

     841 UPPER PART EQS.       840 LOWER PART EQS.    BAND WIDTH + 1 =   42
 STRESS PERIOD=  1 TIMESTEP=  7 LAYER=  1 ZONE=  2 ACTIVE CELLS= 1681 NUMBER OF EQUATIONS=    1681

 SOLVING FOR HEAD 

 NO OUTPUT CONTROL FOR STRESS PERIOD    1   TIME STEP    8
 SOLVING FOR ZETA FOR LAYER     1 ZONE     2

     921 UPPER PART EQS.       924 LOWER PART EQS.    BAND WIDTH + 1 =   44
 STRESS PERIOD=  1 TIMESTEP=  8 LAYER=  1 ZONE=  2 ACTIVE CELLS= 1845 NUMBER OF EQUATIONS=    1845

 SOLVING FOR HEAD 

 NO OUTPUT CONTROL FOR STRESS PERIOD    1   TIME STEP    9
 SOLVING FOR ZETA FOR LAYER     1 ZONE     2

     841 UPPER PART EQS.       840 LOWER PART EQS.    BAND WIDTH + 1 =   42
 STRESS PERIOD=  1 TIMESTEP=  9 LAYER=  1 ZONE=  2 ACTIVE CELLS= 1681 NUMBER OF EQUATIONS=    1681

 SOLVING FOR HEAD 

 NO OUTPUT CONTROL FOR STRESS PERIOD    1   TIME STEP   10
 SOLVING FOR ZETA FOR LAYER     1 ZONE     2

     921 UPPER PART EQS.       924 LOWER PART EQS.    BAND WIDTH + 1 =   44
 STRESS PERIOD=  1 TIMESTEP= 10 LAYER=  1 ZONE=  2 ACTIVE CELLS= 1845 NUMBER OF EQUATIONS=    1845

 SOLVING FOR HEAD 

 NO OUTPUT CONTROL FOR STRESS PERIOD    1   TIME STEP   11
 SOLVING FOR ZETA FOR LAYER     1 ZONE     2

     841 UPPER PART EQS.       840 LOWER PART EQS.    BAND WIDTH + 1 =   42
 STRESS PERIOD=  1 TIMESTEP= 11 LAYER=  1 ZONE=  2 ACTIVE CELLS= 1681 NUMBER OF EQUATIONS=    1681

 SOLVING FOR HEAD 

 NO OUTPUT CONTROL FOR STRESS PERIOD    1   TIME STEP   12
 SOLVING FOR ZETA FOR LAYER     1 ZONE     2

     921 UPPER PART EQS.       924 LOWER PART EQS.    BAND WIDTH + 1 =   44
 STRESS PERIOD=  1 TIMESTEP= 12 LAYER=  1 ZONE=  2 ACTIVE CELLS= 1845 NUMBER OF EQUATIONS=    1845

 SOLVING FOR HEAD 

 NO OUTPUT CONTROL FOR STRESS PERIOD    1   TIME STEP   13
 SOLVING FOR ZETA FOR LAYER     1 ZONE     2

     841 UPPER PART EQS.       840 LOWER PART EQS.    BAND WIDTH + 1 =   42
 STRESS PERIOD=  1 TIMESTEP= 13 LAYER=  1 ZONE=  2 ACTIVE CELLS= 1681 NUMBER OF EQUATIONS=    1681

 SOLVING FOR HEAD 

 NO OUTPUT CONTROL FOR STRESS PERIOD    1   TIME STEP   14
 SOLVING FOR ZETA FOR LAYER     1 ZONE     2

     921 UPPER PART EQS.       924 LOWER PART EQS.    BAND WIDTH + 1 =   44
 STRESS PERIOD=  1 TIMESTEP= 14 LAYER=  1 ZONE=  2 ACTIVE CELLS= 1845 NUMBER OF EQUATIONS=    1845

 SOLVING FOR HEAD 

 NO OUTPUT CONTROL FOR STRESS PERIOD    1   TIME STEP   15
 SOLVING FOR ZETA FOR LAYER     1 ZONE     2

     841 UPPER PART EQS.       840 LOWER PART EQS.    BAND WIDTH + 1 =   42
 STRESS PERIOD=  1 TIMESTEP= 15 LAYER=  1 ZONE=  2 ACTIVE CELLS= 1681 NUMBER OF EQUATIONS=    1681

 SOLVING FOR HEAD 

 NO OUTPUT CONTROL FOR STRESS PERIOD    1   TIME STEP   16
 SOLVING FOR ZETA FOR LAYER     1 ZONE     2

     921 UPPER PART EQS.       924 LOWER PART EQS.    BAND WIDTH + 1 =   44
 STRESS PERIOD=  1 TIMESTEP= 16 LAYER=  1 ZONE=  2 ACTIVE CELLS= 1845 NUMBER OF EQUATIONS=    1845

 SOLVING FOR HEAD 

 NO OUTPUT CONTROL FOR STRESS PERIOD    1   TIME STEP   17
 SOLVING FOR ZETA FOR LAYER     1 ZONE     2

     841 UPPER PART EQS.       840 LOWER PART EQS.    BAND WIDTH + 1 =   42
 STRESS PERIOD=  1 TIMESTEP= 17 LAYER=  1 ZONE=  2 ACTIVE CELLS= 1681 NUMBER OF EQUATIONS=    1681

 SOLVING FOR HEAD 

 NO OUTPUT CONTROL FOR STRESS PERIOD    1   TIME STEP   18
 SOLVING FOR ZETA FOR LAYER     1 ZONE     2

     921 UPPER PART EQS.       924 LOWER PART EQS.    BAND WIDTH + 1 =   44
 STRESS PERIOD=  1 TIMESTEP= 18 LAYER=  1 ZONE=  2 ACTIVE CELLS= 1845 NUMBER OF EQUATIONS=    1845

 SOLVING FOR HEAD 

 NO OUTPUT CONTROL FOR STRESS PERIOD    1   TIME STEP   19
 SOLVING FOR ZETA FOR LAYER     1 ZONE     2

     841 UPPER PART EQS.       840 LOWER PART EQS.    BAND WIDTH + 1 =   42
 STRESS PERIOD=  1 TIMESTEP= 19 LAYER=  1 ZONE=  2 ACTIVE CELLS= 1681 NUMBER OF EQUATIONS=    1681

 SOLVING FOR HEAD 

 NO OUTPUT CONTROL FOR STRESS PERIOD    1   TIME STEP   20
 SOLVING FOR ZETA FOR LAYER     1 ZONE     2

     921 UPPER PART EQS.       924 LOWER PART EQS.    BAND WIDTH + 1 =   44
 STRESS PERIOD=  1 TIMESTEP= 20 LAYER=  1 ZONE=  2 ACTIVE CELLS= 1845 NUMBER OF EQUATIONS=    1845

 SOLVING FOR HEAD 

 NO OUTPUT CONTROL FOR STRESS PERIOD    1   TIME STEP   21
 SOLVING FOR ZETA FOR LAYER     1 ZONE     2

     841 UPPER PART EQS.       840 LOWER PART EQS.    BAND WIDTH + 1 =   42
 STRESS PERIOD=  1 TIMESTEP= 21 LAYER=  1 ZONE=  2 ACTIVE CELLS= 1681 NUMBER OF EQUATIONS=    1681

 SOLVING FOR HEAD 

 NO OUTPUT CONTROL FOR STRESS PERIOD    1   TIME STEP   22
 SOLVING FOR ZETA FOR LAYER     1 ZONE     2

     921 UPPER PART EQS.       924 LOWER PART EQS.    BAND WIDTH + 1 =   44
 STRESS PERIOD=  1 TIMESTEP= 22 LAYER=  1 ZONE=  2 ACTIVE CELLS= 1845 NUMBER OF EQUATIONS=    1845

 SOLVING FOR HEAD 

 NO OUTPUT CONTROL FOR STRESS PERIOD    1   TIME STEP   23
 SOLVING FOR ZETA FOR LAYER     1 ZONE     2

     841 UPPER PART EQS.       840 LOWER PART EQS.    BAND WIDTH + 1 =   42
 STRESS PERIOD=  1 TIMESTEP= 23 LAYER=  1 ZONE=  2 ACTIVE CELLS= 1681 NUMBER OF EQUATIONS=    1681

 SOLVING FOR HEAD 

 NO OUTPUT CONTROL FOR STRESS PERIOD    1   TIME STEP   24
 SOLVING FOR ZETA FOR LAYER     1 ZONE     2

     921 UPPER PART EQS.       924 LOWER PART EQS.    BAND WIDTH + 1 =   44
 STRESS PERIOD=  1 TIMESTEP= 24 LAYER=  1 ZONE=  2 ACTIVE CELLS= 1845 NUMBER OF EQUATIONS=    1845

 SOLVING FOR HEAD 

 NO OUTPUT CONTROL FOR STRESS PERIOD    1   TIME STEP   25
 SOLVING FOR ZETA FOR LAYER     1 ZONE     2

     849 UPPER PART EQS.       848 LOWER PART EQS.    BAND WIDTH + 1 =   44
 STRESS PERIOD=  1 TIMESTEP= 25 LAYER=  1 ZONE=  2 ACTIVE CELLS= 1697 NUMBER OF EQUATIONS=    1697

 SOLVING FOR HEAD 

 NO OUTPUT CONTROL FOR STRESS PERIOD    1   TIME STEP   26
 SOLVING FOR ZETA FOR LAYER     1 ZONE     2

     921 UPPER PART EQS.       916 LOWER PART EQS.    BAND WIDTH + 1 =   44
 STRESS PERIOD=  1 TIMESTEP= 26 LAYER=  1 ZONE=  2 ACTIVE CELLS= 1837 NUMBER OF EQUATIONS=    1837

 SOLVING FOR HEAD 

 NO OUTPUT CONTROL FOR STRESS PERIOD    1   TIME STEP   27
 SOLVING FOR ZETA FOR LAYER     1 ZONE     2

     849 UPPER PART EQS.       856 LOWER PART EQS.    BAND WIDTH + 1 =   44
 STRESS PERIOD=  1 TIMESTEP= 27 LAYER=  1 ZONE=  2 ACTIVE CELLS= 1705 NUMBER OF EQUATIONS=    1705

 SOLVING FOR HEAD 

 NO OUTPUT CONTROL FOR STRESS PERIOD    1   TIME STEP   28
 SOLVING FOR ZETA FOR LAYER     1 ZONE     2

     921 UPPER PART EQS.       924 LOWER PART EQS.    BAND WIDTH + 1 =   44
 STRESS PERIOD=  1 TIMESTEP= 28 LAYER=  1 ZONE=  2 ACTIVE CELLS= 1845 NUMBER OF EQUATIONS=    1845

 SOLVING FOR HEAD 

 NO OUTPUT CONTROL FOR STRESS PERIOD    1   TIME STEP   29
 SOLVING FOR ZETA FOR LAYER     1 ZONE     2

     857 UPPER PART EQS.       856 LOWER PART EQS.    BAND WIDTH + 1 =   44
 STRESS PERIOD=  1 TIMESTEP= 29 LAYER=  1 ZONE=  2 ACTIVE CELLS= 1713 NUMBER OF EQUATIONS=    1713

 SOLVING FOR HEAD 

 NO OUTPUT CONTROL FOR STRESS PERIOD    1   TIME STEP   30
 SOLVING FOR ZETA FOR LAYER     1 ZONE     2

     921 UPPER PART EQS.       916 LOWER PART EQS.    BAND WIDTH + 1 =   44
 STRESS PERIOD=  1 TIMESTEP= 30 LAYER=  1 ZONE=  2 ACTIVE CELLS= 1837 NUMBER OF EQUATIONS=    1837

 SOLVING FOR HEAD 

 NO OUTPUT CONTROL FOR STRESS PERIOD    1   TIME STEP   31
 SOLVING FOR ZETA FOR LAYER     1 ZONE     2

     857 UPPER PART EQS.       864 LOWER PART EQS.    BAND WIDTH + 1 =   44
 STRESS PERIOD=  1 TIMESTEP= 31 LAYER=  1 ZONE=  2 ACTIVE CELLS= 1721 NUMBER OF EQUATIONS=    1721

 SOLVING FOR HEAD 

 NO OUTPUT CONTROL FOR STRESS PERIOD    1   TIME STEP   32
 SOLVING FOR ZETA FOR LAYER     1 ZONE     2

     921 UPPER PART EQS.       924 LOWER PART EQS.    BAND WIDTH + 1 =   44
 STRESS PERIOD=  1 TIMESTEP= 32 LAYER=  1 ZONE=  2 ACTIVE CELLS= 1845 NUMBER OF EQUATIONS=    1845

 SOLVING FOR HEAD 

 NO OUTPUT CONTROL FOR STRESS PERIOD    1   TIME STEP   33
 SOLVING FOR ZETA FOR LAYER     1 ZONE     2

     865 UPPER PART EQS.       872 LOWER PART EQS.    BAND WIDTH + 1 =   44
 STRESS PERIOD=  1 TIMESTEP= 33 LAYER=  1 ZONE=  2 ACTIVE CELLS= 1737 NUMBER OF EQUATIONS=    1737

 SOLVING FOR HEAD 

 NO OUTPUT CONTROL FOR STRESS PERIOD    1   TIME STEP   34
 SOLVING FOR ZETA FOR LAYER     1 ZONE     2

     921 UPPER PART EQS.       924 LOWER PART EQS.    BAND WIDTH + 1 =   44
 STRESS PERIOD=  1 TIMESTEP= 34 LAYER=  1 ZONE=  2 ACTIVE CELLS= 1845 NUMBER OF EQUATIONS=    1845

 SOLVING FOR HEAD 

 NO OUTPUT CONTROL FOR STRESS PERIOD    1   TIME STEP   35
 SOLVING FOR ZETA FOR LAYER     1 ZONE     2

     873 UPPER PART EQS.       880 LOWER PART EQS.    BAND WIDTH + 1 =   44
 STRESS PERIOD=  1 TIMESTEP= 35 LAYER=  1 ZONE=  2 ACTIVE CELLS= 1753 NUMBER OF EQUATIONS=    1753

 SOLVING FOR HEAD 

 NO OUTPUT CONTROL FOR STRESS PERIOD    1   TIME STEP   36
 SOLVING FOR ZETA FOR LAYER     1 ZONE     2

     921 UPPER PART EQS.       924 LOWER PART EQS.    BAND WIDTH + 1 =   44
 STRESS PERIOD=  1 TIMESTEP= 36 LAYER=  1 ZONE=  2 ACTIVE CELLS= 1845 NUMBER OF EQUATIONS=    1845

 SOLVING FOR HEAD 

 NO OUTPUT CONTROL FOR STRESS PERIOD    1   TIME STEP   37
 SOLVING FOR ZETA FOR LAYER     1 ZONE     2

     889 UPPER PART EQS.       896 LOWER PART EQS.    BAND WIDTH + 1 =   44
 STRESS PERIOD=  1 TIMESTEP= 37 LAYER=  1 ZONE=  2 ACTIVE CELLS= 1785 NUMBER OF EQUATIONS=    1785

 SOLVING FOR HEAD 

 NO OUTPUT CONTROL FOR STRESS PERIOD    1   TIME STEP   38
 SOLVING FOR ZETA FOR LAYER     1 ZONE     2

     921 UPPER PART EQS.       924 LOWER PART EQS.    BAND WIDTH + 1 =   44
 STRESS PERIOD=  1 TIMESTEP= 38 LAYER=  1 ZONE=  2 ACTIVE CELLS= 1845 NUMBER OF EQUATIONS=    1845

 SOLVING FOR HEAD 

 NO OUTPUT CONTROL FOR STRESS PERIOD    1   TIME STEP   39
 SOLVING FOR ZETA FOR LAYER     1 ZONE     2
 STRESS PERIOD=  1 TIMESTEP= 39 LAYER=  1 ZONE=  2 ACTIVE CELLS= 1845 NUMBER OF EQUATIONS=    1845

 SOLVING FOR HEAD 

 NO OUTPUT CONTROL FOR STRESS PERIOD    1   TIME STEP   40
 SOLVING FOR ZETA FOR LAYER     1 ZONE     2
 STRESS PERIOD=  1 TIMESTEP= 40 LAYER=  1 ZONE=  2 ACTIVE CELLS= 1845 NUMBER OF EQUATIONS=    1845

 SOLVING FOR HEAD 

 NO OUTPUT CONTROL FOR STRESS PERIOD    1   TIME STEP   41
 SOLVING FOR ZETA FOR LAYER     1 ZONE     2

     913 UPPER PART EQS.       912 LOWER PART EQS.    BAND WIDTH + 1 =   44
 STRESS PERIOD=  1 TIMESTEP= 41 LAYER=  1 ZONE=  2 ACTIVE CELLS= 1825 NUMBER OF EQUATIONS=    1825

 SOLVING FOR HEAD 

 NO OUTPUT CONTROL FOR STRESS PERIOD    1   TIME STEP   42
 SOLVING FOR ZETA FOR LAYER     1 ZONE     2

     913 UPPER PART EQS.       916 LOWER PART EQS.    BAND WIDTH + 1 =   44
 STRESS PERIOD=  1 TIMESTEP= 42 LAYER=  1 ZONE=  2 ACTIVE CELLS= 1829 NUMBER OF EQUATIONS=    1829

 SOLVING FOR HEAD 

 NO OUTPUT CONTROL FOR STRESS PERIOD    1   TIME STEP   43
 SOLVING FOR ZETA FOR LAYER     1 ZONE     2

     921 UPPER PART EQS.       924 LOWER PART EQS.    BAND WIDTH + 1 =   44
 STRESS PERIOD=  1 TIMESTEP= 43 LAYER=  1 ZONE=  2 ACTIVE CELLS= 1845 NUMBER OF EQUATIONS=    1845

 SOLVING FOR HEAD 

 NO OUTPUT CONTROL FOR STRESS PERIOD    1   TIME STEP   44
 SOLVING FOR ZETA FOR LAYER     1 ZONE     2
 STRESS PERIOD=  1 TIMESTEP= 44 LAYER=  1 ZONE=  2 ACTIVE CELLS= 1845 NUMBER OF EQUATIONS=    1845

 SOLVING FOR HEAD 

 NO OUTPUT CONTROL FOR STRESS PERIOD    1   TIME STEP   45
 SOLVING FOR ZETA FOR LAYER     1 ZONE     2
 STRESS PERIOD=  1 TIMESTEP= 45 LAYER=  1 ZONE=  2 ACTIVE CELLS= 1845 NUMBER OF EQUATIONS=    1845

 SOLVING FOR HEAD 

 NO OUTPUT CONTROL FOR STRESS PERIOD    1   TIME STEP   46
 SOLVING FOR ZETA FOR LAYER     1 ZONE     2

     921 UPPER PART EQS.       916 LOWER PART EQS.    BAND WIDTH + 1 =   44
 STRESS PERIOD=  1 TIMESTEP= 46 LAYER=  1 ZONE=  2 ACTIVE CELLS= 1837 NUMBER OF EQUATIONS=    1837

 SOLVING FOR HEAD 

 NO OUTPUT CONTROL FOR STRESS PERIOD    1   TIME STEP   47
 SOLVING FOR ZETA FOR LAYER     1 ZONE     2

     929 UPPER PART EQS.       924 LOWER PART EQS.    BAND WIDTH + 1 =   44
 STRESS PERIOD=  1 TIMESTEP= 47 LAYER=  1 ZONE=  2 ACTIVE CELLS= 1853 NUMBER OF EQUATIONS=    1853

 SOLVING FOR HEAD 

 NO OUTPUT CONTROL FOR STRESS PERIOD    1   TIME STEP   48
 SOLVING FOR ZETA FOR LAYER     1 ZONE     2

     921 UPPER PART EQS.       932 LOWER PART EQS.    BAND WIDTH + 1 =   44
 STRESS PERIOD=  1 TIMESTEP= 48 LAYER=  1 ZONE=  2 ACTIVE CELLS= 1853 NUMBER OF EQUATIONS=    1853

 SOLVING FOR HEAD 

 NO OUTPUT CONTROL FOR STRESS PERIOD    1   TIME STEP   49
 SOLVING FOR ZETA FOR LAYER     1 ZONE     2

     937 UPPER PART EQS.       924 LOWER PART EQS.    BAND WIDTH + 1 =   44
 STRESS PERIOD=  1 TIMESTEP= 49 LAYER=  1 ZONE=  2 ACTIVE CELLS= 1861 NUMBER OF EQUATIONS=    1861

 SOLVING FOR HEAD 

 NO OUTPUT CONTROL FOR STRESS PERIOD    1   TIME STEP   50
 SOLVING FOR ZETA FOR LAYER     1 ZONE     2

     921 UPPER PART EQS.       932 LOWER PART EQS.    BAND WIDTH + 1 =   44
 STRESS PERIOD=  1 TIMESTEP= 50 LAYER=  1 ZONE=  2 ACTIVE CELLS= 1853 NUMBER OF EQUATIONS=    1853

 SOLVING FOR HEAD 

 NO OUTPUT CONTROL FOR STRESS PERIOD    1   TIME STEP   51
 SOLVING FOR ZETA FOR LAYER     1 ZONE     2

     937 UPPER PART EQS.       940 LOWER PART EQS.    BAND WIDTH + 1 =   46
 STRESS PERIOD=  1 TIMESTEP= 51 LAYER=  1 ZONE=  2 ACTIVE CELLS= 1877 NUMBER OF EQUATIONS=    1877

 SOLVING FOR HEAD 

 NO OUTPUT CONTROL FOR STRESS PERIOD    1   TIME STEP   52
 SOLVING FOR ZETA FOR LAYER     1 ZONE     2

     929 UPPER PART EQS.       932 LOWER PART EQS.    BAND WIDTH + 1 =   44
 STRESS PERIOD=  1 TIMESTEP= 52 LAYER=  1 ZONE=  2 ACTIVE CELLS= 1861 NUMBER OF EQUATIONS=    1861

 SOLVING FOR HEAD 

 NO OUTPUT CONTROL FOR STRESS PERIOD    1   TIME STEP   53
 SOLVING FOR ZETA FOR LAYER     1 ZONE     2

     937 UPPER PART EQS.       940 LOWER PART EQS.    BAND WIDTH + 1 =   46
 STRESS PERIOD=  1 TIMESTEP= 53 LAYER=  1 ZONE=  2 ACTIVE CELLS= 1877 NUMBER OF EQUATIONS=    1877

 SOLVING FOR HEAD 

 NO OUTPUT CONTROL FOR STRESS PERIOD    1   TIME STEP   54
 SOLVING FOR ZETA FOR LAYER     1 ZONE     2

     921 UPPER PART EQS.       940 LOWER PART EQS.    BAND WIDTH + 1 =   44
 STRESS PERIOD=  1 TIMESTEP= 54 LAYER=  1 ZONE=  2 ACTIVE CELLS= 1861 NUMBER OF EQUATIONS=    1861

 SOLVING FOR HEAD 

 NO OUTPUT CONTROL FOR STRESS PERIOD    1   TIME STEP   55
 SOLVING FOR ZETA FOR LAYER     1 ZONE     2

     953 UPPER PART EQS.       940 LOWER PART EQS.    BAND WIDTH + 1 =   46
 STRESS PERIOD=  1 TIMESTEP= 55 LAYER=  1 ZONE=  2 ACTIVE CELLS= 1893 NUMBER OF EQUATIONS=    1893

 SOLVING FOR HEAD 

 NO OUTPUT CONTROL FOR STRESS PERIOD    1   TIME STEP   56
 SOLVING FOR ZETA FOR LAYER     1 ZONE     2

     921 UPPER PART EQS.       940 LOWER PART EQS.    BAND WIDTH + 1 =   44
 STRESS PERIOD=  1 TIMESTEP= 56 LAYER=  1 ZONE=  2 ACTIVE CELLS= 1861 NUMBER OF EQUATIONS=    1861

 SOLVING FOR HEAD 

 NO OUTPUT CONTROL FOR STRESS PERIOD    1   TIME STEP   57
 SOLVING FOR ZETA FOR LAYER     1 ZONE     2

     961 UPPER PART EQS.       956 LOWER PART EQS.    BAND WIDTH + 1 =   46
 STRESS PERIOD=  1 TIMESTEP= 57 LAYER=  1 ZONE=  2 ACTIVE CELLS= 1917 NUMBER OF EQUATIONS=    1917

 SOLVING FOR HEAD 

 NO OUTPUT CONTROL FOR STRESS PERIOD    1   TIME STEP   58
 SOLVING FOR ZETA FOR LAYER     1 ZONE     2

     921 UPPER PART EQS.       932 LOWER PART EQS.    BAND WIDTH + 1 =   44
 STRESS PERIOD=  1 TIMESTEP= 58 LAYER=  1 ZONE=  2 ACTIVE CELLS= 1853 NUMBER OF EQUATIONS=    1853

 SOLVING FOR HEAD 

 NO OUTPUT CONTROL FOR STRESS PERIOD    1   TIME STEP   59
 SOLVING FOR ZETA FOR LAYER     1 ZONE     2

     969 UPPER PART EQS.       964 LOWER PART EQS.    BAND WIDTH + 1 =   46
 STRESS PERIOD=  1 TIMESTEP= 59 LAYER=  1 ZONE=  2 ACTIVE CELLS= 1933 NUMBER OF EQUATIONS=    1933

 SOLVING FOR HEAD 

 NO OUTPUT CONTROL FOR STRESS PERIOD    1   TIME STEP   60
 SOLVING FOR ZETA FOR LAYER     1 ZONE     2

     921 UPPER PART EQS.       932 LOWER PART EQS.    BAND WIDTH + 1 =   44
 STRESS PERIOD=  1 TIMESTEP= 60 LAYER=  1 ZONE=  2 ACTIVE CELLS= 1853 NUMBER OF EQUATIONS=    1853

 SOLVING FOR HEAD 

 NO OUTPUT CONTROL FOR STRESS PERIOD    1   TIME STEP   61
 SOLVING FOR ZETA FOR LAYER     1 ZONE     2

     997 UPPER PART EQS.       988 LOWER PART EQS.    BAND WIDTH + 1 =   46
 STRESS PERIOD=  1 TIMESTEP= 61 LAYER=  1 ZONE=  2 ACTIVE CELLS= 1985 NUMBER OF EQUATIONS=    1985

 SOLVING FOR HEAD 

 NO OUTPUT CONTROL FOR STRESS PERIOD    1   TIME STEP   62
 SOLVING FOR ZETA FOR LAYER     1 ZONE     2

     921 UPPER PART EQS.       932 LOWER PART EQS.    BAND WIDTH + 1 =   44
 STRESS PERIOD=  1 TIMESTEP= 62 LAYER=  1 ZONE=  2 ACTIVE CELLS= 1853 NUMBER OF EQUATIONS=    1853

 SOLVING FOR HEAD 

 NO OUTPUT CONTROL FOR STRESS PERIOD    1   TIME STEP   63
 SOLVING FOR ZETA FOR LAYER     1 ZONE     2

     977 UPPER PART EQS.       972 LOWER PART EQS.    BAND WIDTH + 1 =   46
 STRESS PERIOD=  1 TIMESTEP= 63 LAYER=  1 ZONE=  2 ACTIVE CELLS= 1949 NUMBER OF EQUATIONS=    1949

 SOLVING FOR HEAD 

 NO OUTPUT CONTROL FOR STRESS PERIOD    1   TIME STEP   64
 SOLVING FOR ZETA FOR LAYER     1 ZONE     2

     941 UPPER PART EQS.       956 LOWER PART EQS.    BAND WIDTH + 1 =   44
 STRESS PERIOD=  1 TIMESTEP= 64 LAYER=  1 ZONE=  2 ACTIVE CELLS= 1897 NUMBER OF EQUATIONS=    1897

 SOLVING FOR HEAD 

 NO OUTPUT CONTROL FOR STRESS PERIOD    1   TIME STEP   65
 SOLVING FOR ZETA FOR LAYER     1 ZONE     2

     969 UPPER PART EQS.       972 LOWER PART EQS.    BAND WIDTH + 1 =   46
 STRESS PERIOD=  1 TIMESTEP= 65 LAYER=  1 ZONE=  2 ACTIVE CELLS= 1941 NUMBER OF EQUATIONS=    1941

 SOLVING FOR HEAD 

 NO OUTPUT CONTROL FOR STRESS PERIOD    1   TIME STEP   66
 SOLVING FOR ZETA FOR LAYER     1 ZONE     2

     937 UPPER PART EQS.       948 LOWER PART EQS.    BAND WIDTH + 1 =   44
 STRESS PERIOD=  1 TIMESTEP= 66 LAYER=  1 ZONE=  2 ACTIVE CELLS= 1885 NUMBER OF EQUATIONS=    1885

 SOLVING FOR HEAD 

 NO OUTPUT CONTROL FOR STRESS PERIOD    1   TIME STEP   67
 SOLVING FOR ZETA FOR LAYER     1 ZONE     2

     981 UPPER PART EQS.       980 LOWER PART EQS.    BAND WIDTH + 1 =   46
 STRESS PERIOD=  1 TIMESTEP= 67 LAYER=  1 ZONE=  2 ACTIVE CELLS= 1961 NUMBER OF EQUATIONS=    1961

 SOLVING FOR HEAD 

 NO OUTPUT CONTROL FOR STRESS PERIOD    1   TIME STEP   68
 SOLVING FOR ZETA FOR LAYER     1 ZONE     2

     937 UPPER PART EQS.       948 LOWER PART EQS.    BAND WIDTH + 1 =   44
 STRESS PERIOD=  1 TIMESTEP= 68 LAYER=  1 ZONE=  2 ACTIVE CELLS= 1885 NUMBER OF EQUATIONS=    1885

 SOLVING FOR HEAD 

 NO OUTPUT CONTROL FOR STRESS PERIOD    1   TIME STEP   69
 SOLVING FOR ZETA FOR LAYER     1 ZONE     2

     981 UPPER PART EQS.       980 LOWER PART EQS.    BAND WIDTH + 1 =   46
 STRESS PERIOD=  1 TIMESTEP= 69 LAYER=  1 ZONE=  2 ACTIVE CELLS= 1961 NUMBER OF EQUATIONS=    1961

 SOLVING FOR HEAD 

 NO OUTPUT CONTROL FOR STRESS PERIOD    1   TIME STEP   70
 SOLVING FOR ZETA FOR LAYER     1 ZONE     2

     945 UPPER PART EQS.       948 LOWER PART EQS.    BAND WIDTH + 1 =   44
 STRESS PERIOD=  1 TIMESTEP= 70 LAYER=  1 ZONE=  2 ACTIVE CELLS= 1893 NUMBER OF EQUATIONS=    1893

 SOLVING FOR HEAD 

 NO OUTPUT CONTROL FOR STRESS PERIOD    1   TIME STEP   71
 SOLVING FOR ZETA FOR LAYER     1 ZONE     2

     981 UPPER PART EQS.       980 LOWER PART EQS.    BAND WIDTH + 1 =   46
 STRESS PERIOD=  1 TIMESTEP= 71 LAYER=  1 ZONE=  2 ACTIVE CELLS= 1961 NUMBER OF EQUATIONS=    1961

 SOLVING FOR HEAD 

 NO OUTPUT CONTROL FOR STRESS PERIOD    1   TIME STEP   72
 SOLVING FOR ZETA FOR LAYER     1 ZONE     2

     937 UPPER PART EQS.       948 LOWER PART EQS.    BAND WIDTH + 1 =   44
 STRESS PERIOD=  1 TIMESTEP= 72 LAYER=  1 ZONE=  2 ACTIVE CELLS= 1885 NUMBER OF EQUATIONS=    1885

 SOLVING FOR HEAD 

 NO OUTPUT CONTROL FOR STRESS PERIOD    1   TIME STEP   73
 SOLVING FOR ZETA FOR LAYER     1 ZONE     2

     993 UPPER PART EQS.       980 LOWER PART EQS.    BAND WIDTH + 1 =   46
 STRESS PERIOD=  1 TIMESTEP= 73 LAYER=  1 ZONE=  2 ACTIVE CELLS= 1973 NUMBER OF EQUATIONS=    1973

 SOLVING FOR HEAD 

 NO OUTPUT CONTROL FOR STRESS PERIOD    1   TIME STEP   74
 SOLVING FOR ZETA FOR LAYER     1 ZONE     2

     937 UPPER PART EQS.       948 LOWER PART EQS.    BAND WIDTH + 1 =   44
 STRESS PERIOD=  1 TIMESTEP= 74 LAYER=  1 ZONE=  2 ACTIVE CELLS= 1885 NUMBER OF EQUATIONS=    1885

 SOLVING FOR HEAD 

 NO OUTPUT CONTROL FOR STRESS PERIOD    1   TIME STEP   75
 SOLVING FOR ZETA FOR LAYER     1 ZONE     2

     981 UPPER PART EQS.       980 LOWER PART EQS.    BAND WIDTH + 1 =   46
 STRESS PERIOD=  1 TIMESTEP= 75 LAYER=  1 ZONE=  2 ACTIVE CELLS= 1961 NUMBER OF EQUATIONS=    1961

 SOLVING FOR HEAD 

 NO OUTPUT CONTROL FOR STRESS PERIOD    1   TIME STEP   76
 SOLVING FOR ZETA FOR LAYER     1 ZONE     2

     945 UPPER PART EQS.       948 LOWER PART EQS.    BAND WIDTH + 1 =   44
 STRESS PERIOD=  1 TIMESTEP= 76 LAYER=  1 ZONE=  2 ACTIVE CELLS= 1893 NUMBER OF EQUATIONS=    1893

 SOLVING FOR HEAD 

 NO OUTPUT CONTROL FOR STRESS PERIOD    1   TIME STEP   77
 SOLVING FOR ZETA FOR LAYER     1 ZONE     2

     981 UPPER PART EQS.       980 LOWER PART EQS.    BAND WIDTH + 1 =   46
 STRESS PERIOD=  1 TIMESTEP= 77 LAYER=  1 ZONE=  2 ACTIVE CELLS= 1961 NUMBER OF EQUATIONS=    1961

 SOLVING FOR HEAD 

 NO OUTPUT CONTROL FOR STRESS PERIOD    1   TIME STEP   78
 SOLVING FOR ZETA FOR LAYER     1 ZONE     2

     941 UPPER PART EQS.       948 LOWER PART EQS.    BAND WIDTH + 1 =   44
 STRESS PERIOD=  1 TIMESTEP= 78 LAYER=  1 ZONE=  2 ACTIVE CELLS= 1889 NUMBER OF EQUATIONS=    1889

 SOLVING FOR HEAD 

 NO OUTPUT CONTROL FOR STRESS PERIOD    1   TIME STEP   79
 SOLVING FOR ZETA FOR LAYER     1 ZONE     2

     989 UPPER PART EQS.       980 LOWER PART EQS.    BAND WIDTH + 1 =   44
 STRESS PERIOD=  1 TIMESTEP= 79 LAYER=  1 ZONE=  2 ACTIVE CELLS= 1969 NUMBER OF EQUATIONS=    1969

 SOLVING FOR HEAD 

 NO OUTPUT CONTROL FOR STRESS PERIOD    1   TIME STEP   80
 SOLVING FOR ZETA FOR LAYER     1 ZONE     2

     937 UPPER PART EQS.       948 LOWER PART EQS.    BAND WIDTH + 1 =   44
 STRESS PERIOD=  1 TIMESTEP= 80 LAYER=  1 ZONE=  2 ACTIVE CELLS= 1885 NUMBER OF EQUATIONS=    1885

 SOLVING FOR HEAD 

 NO OUTPUT CONTROL FOR STRESS PERIOD    1   TIME STEP   81
 SOLVING FOR ZETA FOR LAYER     1 ZONE     2

     989 UPPER PART EQS.       980 LOWER PART EQS.    BAND WIDTH + 1 =   44
 STRESS PERIOD=  1 TIMESTEP= 81 LAYER=  1 ZONE=  2 ACTIVE CELLS= 1969 NUMBER OF EQUATIONS=    1969

 SOLVING FOR HEAD 

 NO OUTPUT CONTROL FOR STRESS PERIOD    1   TIME STEP   82
 SOLVING FOR ZETA FOR LAYER     1 ZONE     2

     937 UPPER PART EQS.       948 LOWER PART EQS.    BAND WIDTH + 1 =   44
 STRESS PERIOD=  1 TIMESTEP= 82 LAYER=  1 ZONE=  2 ACTIVE CELLS= 1885 NUMBER OF EQUATIONS=    1885

 SOLVING FOR HEAD 

 NO OUTPUT CONTROL FOR STRESS PERIOD    1   TIME STEP   83
 SOLVING FOR ZETA FOR LAYER     1 ZONE     2

     993 UPPER PART EQS.       980 LOWER PART EQS.    BAND WIDTH + 1 =   46
 STRESS PERIOD=  1 TIMESTEP= 83 LAYER=  1 ZONE=  2 ACTIVE CELLS= 1973 NUMBER OF EQUATIONS=    1973

 SOLVING FOR HEAD 

 NO OUTPUT CONTROL FOR STRESS PERIOD    1   TIME STEP   84
 SOLVING FOR ZETA FOR LAYER     1 ZONE     2

     937 UPPER PART EQS.       948 LOWER PART EQS.    BAND WIDTH + 1 =   44
 STRESS PERIOD=  1 TIMESTEP= 84 LAYER=  1 ZONE=  2 ACTIVE CELLS= 1885 NUMBER OF EQUATIONS=    1885

 SOLVING FOR HEAD 

 NO OUTPUT CONTROL FOR STRESS PERIOD    1   TIME STEP   85
 SOLVING FOR ZETA FOR LAYER     1 ZONE     2

     993 UPPER PART EQS.       980 LOWER PART EQS.    BAND WIDTH + 1 =   46
 STRESS PERIOD=  1 TIMESTEP= 85 LAYER=  1 ZONE=  2 ACTIVE CELLS= 1973 NUMBER OF EQUATIONS=    1973

 SOLVING FOR HEAD 

 NO OUTPUT CONTROL FOR STRESS PERIOD    1   TIME STEP   86
 SOLVING FOR ZETA FOR LAYER     1 ZONE     2

     937 UPPER PART EQS.       948 LOWER PART EQS.    BAND WIDTH + 1 =   44
 STRESS PERIOD=  1 TIMESTEP= 86 LAYER=  1 ZONE=  2 ACTIVE CELLS= 1885 NUMBER OF EQUATIONS=    1885

 SOLVING FOR HEAD 

 NO OUTPUT CONTROL FOR STRESS PERIOD    1   TIME STEP   87
 SOLVING FOR ZETA FOR LAYER     1 ZONE     2

     993 UPPER PART EQS.       980 LOWER PART EQS.    BAND WIDTH + 1 =   46
 STRESS PERIOD=  1 TIMESTEP= 87 LAYER=  1 ZONE=  2 ACTIVE CELLS= 1973 NUMBER OF EQUATIONS=    1973

 SOLVING FOR HEAD 

 NO OUTPUT CONTROL FOR STRESS PERIOD    1   TIME STEP   88
 SOLVING FOR ZETA FOR LAYER     1 ZONE     2

     937 UPPER PART EQS.       948 LOWER PART EQS.    BAND WIDTH + 1 =   44
 STRESS PERIOD=  1 TIMESTEP= 88 LAYER=  1 ZONE=  2 ACTIVE CELLS= 1885 NUMBER OF EQUATIONS=    1885

 SOLVING FOR HEAD 

 NO OUTPUT CONTROL FOR STRESS PERIOD    1   TIME STEP   89
 SOLVING FOR ZETA FOR LAYER     1 ZONE     2

     993 UPPER PART EQS.       980 LOWER PART EQS.    BAND WIDTH + 1 =   46
 STRESS PERIOD=  1 TIMESTEP= 89 LAYER=  1 ZONE=  2 ACTIVE CELLS= 1973 NUMBER OF EQUATIONS=    1973

 SOLVING FOR HEAD 

 NO OUTPUT CONTROL FOR STRESS PERIOD    1   TIME STEP   90
 SOLVING FOR ZETA FOR LAYER     1 ZONE     2

     937 UPPER PART EQS.       948 LOWER PART EQS.    BAND WIDTH + 1 =   44
 STRESS PERIOD=  1 TIMESTEP= 90 LAYER=  1 ZONE=  2 ACTIVE CELLS= 1885 NUMBER OF EQUATIONS=    1885

 SOLVING FOR HEAD 

 NO OUTPUT CONTROL FOR STRESS PERIOD    1   TIME STEP   91
 SOLVING FOR ZETA FOR LAYER     1 ZONE     2

     993 UPPER PART EQS.       980 LOWER PART EQS.    BAND WIDTH + 1 =   46
 STRESS PERIOD=  1 TIMESTEP= 91 LAYER=  1 ZONE=  2 ACTIVE CELLS= 1973 NUMBER OF EQUATIONS=    1973

 SOLVING FOR HEAD 

 NO OUTPUT CONTROL FOR STRESS PERIOD    1   TIME STEP   92
 SOLVING FOR ZETA FOR LAYER     1 ZONE     2

     937 UPPER PART EQS.       948 LOWER PART EQS.    BAND WIDTH + 1 =   44
 STRESS PERIOD=  1 TIMESTEP= 92 LAYER=  1 ZONE=  2 ACTIVE CELLS= 1885 NUMBER OF EQUATIONS=    1885

 SOLVING FOR HEAD 

 NO OUTPUT CONTROL FOR STRESS PERIOD    1   TIME STEP   93
 SOLVING FOR ZETA FOR LAYER     1 ZONE     2

     993 UPPER PART EQS.       980 LOWER PART EQS.    BAND WIDTH + 1 =   46
 STRESS PERIOD=  1 TIMESTEP= 93 LAYER=  1 ZONE=  2 ACTIVE CELLS= 1973 NUMBER OF EQUATIONS=    1973

 SOLVING FOR HEAD 

 NO OUTPUT CONTROL FOR STRESS PERIOD    1   TIME STEP   94
 SOLVING FOR ZETA FOR LAYER     1 ZONE     2

     937 UPPER PART EQS.       948 LOWER PART EQS.    BAND WIDTH + 1 =   44
 STRESS PERIOD=  1 TIMESTEP= 94 LAYER=  1 ZONE=  2 ACTIVE CELLS= 1885 NUMBER OF EQUATIONS=    1885

 SOLVING FOR HEAD 

 NO OUTPUT CONTROL FOR STRESS PERIOD    1   TIME STEP   95
 SOLVING FOR ZETA FOR LAYER     1 ZONE     2

     993 UPPER PART EQS.       980 LOWER PART EQS.    BAND WIDTH + 1 =   46
 STRESS PERIOD=  1 TIMESTEP= 95 LAYER=  1 ZONE=  2 ACTIVE CELLS= 1973 NUMBER OF EQUATIONS=    1973

 SOLVING FOR HEAD 

 NO OUTPUT CONTROL FOR STRESS PERIOD    1   TIME STEP   96
 SOLVING FOR ZETA FOR LAYER     1 ZONE     2

     937 UPPER PART EQS.       948 LOWER PART EQS.    BAND WIDTH + 1 =   44
 STRESS PERIOD=  1 TIMESTEP= 96 LAYER=  1 ZONE=  2 ACTIVE CELLS= 1885 NUMBER OF EQUATIONS=    1885

 SOLVING FOR HEAD 

 NO OUTPUT CONTROL FOR STRESS PERIOD    1   TIME STEP   97
 SOLVING FOR ZETA FOR LAYER     1 ZONE     2

     993 UPPER PART EQS.       980 LOWER PART EQS.    BAND WIDTH + 1 =   46
 STRESS PERIOD=  1 TIMESTEP= 97 LAYER=  1 ZONE=  2 ACTIVE CELLS= 1973 NUMBER OF EQUATIONS=    1973

 SOLVING FOR HEAD 

 NO OUTPUT CONTROL FOR STRESS PERIOD    1   TIME STEP   98
 SOLVING FOR ZETA FOR LAYER     1 ZONE     2

     937 UPPER PART EQS.       948 LOWER PART EQS.    BAND WIDTH + 1 =   44
 STRESS PERIOD=  1 TIMESTEP= 98 LAYER=  1 ZONE=  2 ACTIVE CELLS= 1885 NUMBER OF EQUATIONS=    1885

 SOLVING FOR HEAD 

 NO OUTPUT CONTROL FOR STRESS PERIOD    1   TIME STEP   99
 SOLVING FOR ZETA FOR LAYER     1 ZONE     2

     993 UPPER PART EQS.       980 LOWER PART EQS.    BAND WIDTH + 1 =   46
 STRESS PERIOD=  1 TIMESTEP= 99 LAYER=  1 ZONE=  2 ACTIVE CELLS= 1973 NUMBER OF EQUATIONS=    1973

 SOLVING FOR HEAD 

 NO OUTPUT CONTROL FOR STRESS PERIOD    1   TIME STEP  100
 SOLVING FOR ZETA FOR LAYER     1 ZONE     2

     937 UPPER PART EQS.       948 LOWER PART EQS.    BAND WIDTH + 1 =   44
 STRESS PERIOD=  1 TIMESTEP=100 LAYER=  1 ZONE=  2 ACTIVE CELLS= 1885 NUMBER OF EQUATIONS=    1885

 SOLVING FOR HEAD 

 NO OUTPUT CONTROL FOR STRESS PERIOD    1   TIME STEP  101
 SOLVING FOR ZETA FOR LAYER     1 ZONE     2

     993 UPPER PART EQS.       980 LOWER PART EQS.    BAND WIDTH + 1 =   46
 STRESS PERIOD=  1 TIMESTEP=101 LAYER=  1 ZONE=  2 ACTIVE CELLS= 1973 NUMBER OF EQUATIONS=    1973

 SOLVING FOR HEAD 

 NO OUTPUT CONTROL FOR STRESS PERIOD    1   TIME STEP  102
 SOLVING FOR ZETA FOR LAYER     1 ZONE     2

     937 UPPER PART EQS.       948 LOWER PART EQS.    BAND WIDTH + 1 =   44
 STRESS PERIOD=  1 TIMESTEP=102 LAYER=  1 ZONE=  2 ACTIVE CELLS= 1885 NUMBER OF EQUATIONS=    1885

 SOLVING FOR HEAD 

 NO OUTPUT CONTROL FOR STRESS PERIOD    1   TIME STEP  103
 SOLVING FOR ZETA FOR LAYER     1 ZONE     2

     993 UPPER PART EQS.       980 LOWER PART EQS.    BAND WIDTH + 1 =   46
 STRESS PERIOD=  1 TIMESTEP=103 LAYER=  1 ZONE=  2 ACTIVE CELLS= 1973 NUMBER OF EQUATIONS=    1973

 SOLVING FOR HEAD 

 NO OUTPUT CONTROL FOR STRESS PERIOD    1   TIME STEP  104
 SOLVING FOR ZETA FOR LAYER     1 ZONE     2

     937 UPPER PART EQS.       948 LOWER PART EQS.    BAND WIDTH + 1 =   44
 STRESS PERIOD=  1 TIMESTEP=104 LAYER=  1 ZONE=  2 ACTIVE CELLS= 1885 NUMBER OF EQUATIONS=    1885

 SOLVING FOR HEAD 

 NO OUTPUT CONTROL FOR STRESS PERIOD    1   TIME STEP  105
 SOLVING FOR ZETA FOR LAYER     1 ZONE     2

     993 UPPER PART EQS.       980 LOWER PART EQS.    BAND WIDTH + 1 =   46
 STRESS PERIOD=  1 TIMESTEP=105 LAYER=  1 ZONE=  2 ACTIVE CELLS= 1973 NUMBER OF EQUATIONS=    1973

 SOLVING FOR HEAD 

 NO OUTPUT CONTROL FOR STRESS PERIOD    1   TIME STEP  106
 SOLVING FOR ZETA FOR LAYER     1 ZONE     2

     937 UPPER PART EQS.       948 LOWER PART EQS.    BAND WIDTH + 1 =   44
 STRESS PERIOD=  1 TIMESTEP=106 LAYER=  1 ZONE=  2 ACTIVE CELLS= 1885 NUMBER OF EQUATIONS=    1885

 SOLVING FOR HEAD 

 NO OUTPUT CONTROL FOR STRESS PERIOD    1   TIME STEP  107
 SOLVING FOR ZETA FOR LAYER     1 ZONE     2

     993 UPPER PART EQS.       980 LOWER PART EQS.    BAND WIDTH + 1 =   46
 STRESS PERIOD=  1 TIMESTEP=107 LAYER=  1 ZONE=  2 ACTIVE CELLS= 1973 NUMBER OF EQUATIONS=    1973

 SOLVING FOR HEAD 

 NO OUTPUT CONTROL FOR STRESS PERIOD    1   TIME STEP  108
 SOLVING FOR ZETA FOR LAYER     1 ZONE     2

     937 UPPER PART EQS.       948 LOWER PART EQS.    BAND WIDTH + 1 =   44
 STRESS PERIOD=  1 TIMESTEP=108 LAYER=  1 ZONE=  2 ACTIVE CELLS= 1885 NUMBER OF EQUATIONS=    1885

 SOLVING FOR HEAD 

 NO OUTPUT CONTROL FOR STRESS PERIOD    1   TIME STEP  109
 SOLVING FOR ZETA FOR LAYER     1 ZONE     2

     993 UPPER PART EQS.       980 LOWER PART EQS.    BAND WIDTH + 1 =   46
 STRESS PERIOD=  1 TIMESTEP=109 LAYER=  1 ZONE=  2 ACTIVE CELLS= 1973 NUMBER OF EQUATIONS=    1973

 SOLVING FOR HEAD 

 NO OUTPUT CONTROL FOR STRESS PERIOD    1   TIME STEP  110
 SOLVING FOR ZETA FOR LAYER     1 ZONE     2

     937 UPPER PART EQS.       948 LOWER PART EQS.    BAND WIDTH + 1 =   44
 STRESS PERIOD=  1 TIMESTEP=110 LAYER=  1 ZONE=  2 ACTIVE CELLS= 1885 NUMBER OF EQUATIONS=    1885

 SOLVING FOR HEAD 

 NO OUTPUT CONTROL FOR STRESS PERIOD    1   TIME STEP  111
 SOLVING FOR ZETA FOR LAYER     1 ZONE     2

     993 UPPER PART EQS.       980 LOWER PART EQS.    BAND WIDTH + 1 =   46
 STRESS PERIOD=  1 TIMESTEP=111 LAYER=  1 ZONE=  2 ACTIVE CELLS= 1973 NUMBER OF EQUATIONS=    1973

 SOLVING FOR HEAD 

 NO OUTPUT CONTROL FOR STRESS PERIOD    1   TIME STEP  112
 SOLVING FOR ZETA FOR LAYER     1 ZONE     2

     937 UPPER PART EQS.       948 LOWER PART EQS.    BAND WIDTH + 1 =   44
 STRESS PERIOD=  1 TIMESTEP=112 LAYER=  1 ZONE=  2 ACTIVE CELLS= 1885 NUMBER OF EQUATIONS=    1885

 SOLVING FOR HEAD 

 NO OUTPUT CONTROL FOR STRESS PERIOD    1   TIME STEP  113
 SOLVING FOR ZETA FOR LAYER     1 ZONE     2

     993 UPPER PART EQS.       980 LOWER PART EQS.    BAND WIDTH + 1 =   46
 STRESS PERIOD=  1 TIMESTEP=113 LAYER=  1 ZONE=  2 ACTIVE CELLS= 1973 NUMBER OF EQUATIONS=    1973

 SOLVING FOR HEAD 

 NO OUTPUT CONTROL FOR STRESS PERIOD    1   TIME STEP  114
 SOLVING FOR ZETA FOR LAYER     1 ZONE     2

     937 UPPER PART EQS.       948 LOWER PART EQS.    BAND WIDTH + 1 =   44
 STRESS PERIOD=  1 TIMESTEP=114 LAYER=  1 ZONE=  2 ACTIVE CELLS= 1885 NUMBER OF EQUATIONS=    1885

 SOLVING FOR HEAD 

 NO OUTPUT CONTROL FOR STRESS PERIOD    1   TIME STEP  115
 SOLVING FOR ZETA FOR LAYER     1 ZONE     2

     993 UPPER PART EQS.       980 LOWER PART EQS.    BAND WIDTH + 1 =   46
 STRESS PERIOD=  1 TIMESTEP=115 LAYER=  1 ZONE=  2 ACTIVE CELLS= 1973 NUMBER OF EQUATIONS=    1973

 SOLVING FOR HEAD 

 NO OUTPUT CONTROL FOR STRESS PERIOD    1   TIME STEP  116
 SOLVING FOR ZETA FOR LAYER     1 ZONE     2

     937 UPPER PART EQS.       948 LOWER PART EQS.    BAND WIDTH + 1 =   44
 STRESS PERIOD=  1 TIMESTEP=116 LAYER=  1 ZONE=  2 ACTIVE CELLS= 1885 NUMBER OF EQUATIONS=    1885

 SOLVING FOR HEAD 

 NO OUTPUT CONTROL FOR STRESS PERIOD    1   TIME STEP  117
 SOLVING FOR ZETA FOR LAYER     1 ZONE     2

     993 UPPER PART EQS.       980 LOWER PART EQS.    BAND WIDTH + 1 =   46
 STRESS PERIOD=  1 TIMESTEP=117 LAYER=  1 ZONE=  2 ACTIVE CELLS= 1973 NUMBER OF EQUATIONS=    1973

 SOLVING FOR HEAD 

 NO OUTPUT CONTROL FOR STRESS PERIOD    1   TIME STEP  118
 SOLVING FOR ZETA FOR LAYER     1 ZONE     2

     937 UPPER PART EQS.       948 LOWER PART EQS.    BAND WIDTH + 1 =   44
 STRESS PERIOD=  1 TIMESTEP=118 LAYER=  1 ZONE=  2 ACTIVE CELLS= 1885 NUMBER OF EQUATIONS=    1885

 SOLVING FOR HEAD 

 NO OUTPUT CONTROL FOR STRESS PERIOD    1   TIME STEP  119
 SOLVING FOR ZETA FOR LAYER     1 ZONE     2

     993 UPPER PART EQS.       980 LOWER PART EQS.    BAND WIDTH + 1 =   46
 STRESS PERIOD=  1 TIMESTEP=119 LAYER=  1 ZONE=  2 ACTIVE CELLS= 1973 NUMBER OF EQUATIONS=    1973

 SOLVING FOR HEAD 

 NO OUTPUT CONTROL FOR STRESS PERIOD    1   TIME STEP  120
 SOLVING FOR ZETA FOR LAYER     1 ZONE     2

     937 UPPER PART EQS.       948 LOWER PART EQS.    BAND WIDTH + 1 =   44
 STRESS PERIOD=  1 TIMESTEP=120 LAYER=  1 ZONE=  2 ACTIVE CELLS= 1885 NUMBER OF EQUATIONS=    1885

 SOLVING FOR HEAD 

 NO OUTPUT CONTROL FOR STRESS PERIOD    1   TIME STEP  121
 SOLVING FOR ZETA FOR LAYER     1 ZONE     2

     993 UPPER PART EQS.       980 LOWER PART EQS.    BAND WIDTH + 1 =   46
 STRESS PERIOD=  1 TIMESTEP=121 LAYER=  1 ZONE=  2 ACTIVE CELLS= 1973 NUMBER OF EQUATIONS=    1973

 SOLVING FOR HEAD 

 NO OUTPUT CONTROL FOR STRESS PERIOD    1   TIME STEP  122
 SOLVING FOR ZETA FOR LAYER     1 ZONE     2

     937 UPPER PART EQS.       948 LOWER PART EQS.    BAND WIDTH + 1 =   44
 STRESS PERIOD=  1 TIMESTEP=122 LAYER=  1 ZONE=  2 ACTIVE CELLS= 1885 NUMBER OF EQUATIONS=    1885

 SOLVING FOR HEAD 

 NO OUTPUT CONTROL FOR STRESS PERIOD    1   TIME STEP  123
 SOLVING FOR ZETA FOR LAYER     1 ZONE     2

     993 UPPER PART EQS.       980 LOWER PART EQS.    BAND WIDTH + 1 =   46
 STRESS PERIOD=  1 TIMESTEP=123 LAYER=  1 ZONE=  2 ACTIVE CELLS= 1973 NUMBER OF EQUATIONS=    1973

 SOLVING FOR HEAD 

 NO OUTPUT CONTROL FOR STRESS PERIOD    1   TIME STEP  124
 SOLVING FOR ZETA FOR LAYER     1 ZONE     2

     937 UPPER PART EQS.       948 LOWER PART EQS.    BAND WIDTH + 1 =   44
 STRESS PERIOD=  1 TIMESTEP=124 LAYER=  1 ZONE=  2 ACTIVE CELLS= 1885 NUMBER OF EQUATIONS=    1885

 SOLVING FOR HEAD 

 NO OUTPUT CONTROL FOR STRESS PERIOD    1   TIME STEP  125
 SOLVING FOR ZETA FOR LAYER     1 ZONE     2

     993 UPPER PART EQS.       980 LOWER PART EQS.    BAND WIDTH + 1 =   46
 STRESS PERIOD=  1 TIMESTEP=125 LAYER=  1 ZONE=  2 ACTIVE CELLS= 1973 NUMBER OF EQUATIONS=    1973

 SOLVING FOR HEAD 

 NO OUTPUT CONTROL FOR STRESS PERIOD    1   TIME STEP  126
 SOLVING FOR ZETA FOR LAYER     1 ZONE     2

     937 UPPER PART EQS.       948 LOWER PART EQS.    BAND WIDTH + 1 =   44
 STRESS PERIOD=  1 TIMESTEP=126 LAYER=  1 ZONE=  2 ACTIVE CELLS= 1885 NUMBER OF EQUATIONS=    1885

 SOLVING FOR HEAD 

 NO OUTPUT CONTROL FOR STRESS PERIOD    1   TIME STEP  127
 SOLVING FOR ZETA FOR LAYER     1 ZONE     2

     993 UPPER PART EQS.       980 LOWER PART EQS.    BAND WIDTH + 1 =   46
 STRESS PERIOD=  1 TIMESTEP=127 LAYER=  1 ZONE=  2 ACTIVE CELLS= 1973 NUMBER OF EQUATIONS=    1973

 SOLVING FOR HEAD 

 NO OUTPUT CONTROL FOR STRESS PERIOD    1   TIME STEP  128
 SOLVING FOR ZETA FOR LAYER     1 ZONE     2

     937 UPPER PART EQS.       948 LOWER PART EQS.    BAND WIDTH + 1 =   44
 STRESS PERIOD=  1 TIMESTEP=128 LAYER=  1 ZONE=  2 ACTIVE CELLS= 1885 NUMBER OF EQUATIONS=    1885

 SOLVING FOR HEAD 

 NO OUTPUT CONTROL FOR STRESS PERIOD    1   TIME STEP  129
 SOLVING FOR ZETA FOR LAYER     1 ZONE     2

     993 UPPER PART EQS.       980 LOWER PART EQS.    BAND WIDTH + 1 =   46
 STRESS PERIOD=  1 TIMESTEP=129 LAYER=  1 ZONE=  2 ACTIVE CELLS= 1973 NUMBER OF EQUATIONS=    1973

 SOLVING FOR HEAD 

 NO OUTPUT CONTROL FOR STRESS PERIOD    1   TIME STEP  130
 SOLVING FOR ZETA FOR LAYER     1 ZONE     2

     937 UPPER PART EQS.       948 LOWER PART EQS.    BAND WIDTH + 1 =   44
 STRESS PERIOD=  1 TIMESTEP=130 LAYER=  1 ZONE=  2 ACTIVE CELLS= 1885 NUMBER OF EQUATIONS=    1885

 SOLVING FOR HEAD 

 NO OUTPUT CONTROL FOR STRESS PERIOD    1   TIME STEP  131
 SOLVING FOR ZETA FOR LAYER     1 ZONE     2

     993 UPPER PART EQS.       980 LOWER PART EQS.    BAND WIDTH + 1 =   46
 STRESS PERIOD=  1 TIMESTEP=131 LAYER=  1 ZONE=  2 ACTIVE CELLS= 1973 NUMBER OF EQUATIONS=    1973

 SOLVING FOR HEAD 

 NO OUTPUT CONTROL FOR STRESS PERIOD    1   TIME STEP  132
 SOLVING FOR ZETA FOR LAYER     1 ZONE     2

     937 UPPER PART EQS.       948 LOWER PART EQS.    BAND WIDTH + 1 =   44
 STRESS PERIOD=  1 TIMESTEP=132 LAYER=  1 ZONE=  2 ACTIVE CELLS= 1885 NUMBER OF EQUATIONS=    1885

 SOLVING FOR HEAD 

 NO OUTPUT CONTROL FOR STRESS PERIOD    1   TIME STEP  133
 SOLVING FOR ZETA FOR LAYER     1 ZONE     2

     993 UPPER PART EQS.       980 LOWER PART EQS.    BAND WIDTH + 1 =   46
 STRESS PERIOD=  1 TIMESTEP=133 LAYER=  1 ZONE=  2 ACTIVE CELLS= 1973 NUMBER OF EQUATIONS=    1973

 SOLVING FOR HEAD 

 NO OUTPUT CONTROL FOR STRESS PERIOD    1   TIME STEP  134
 SOLVING FOR ZETA FOR LAYER     1 ZONE     2

     937 UPPER PART EQS.       948 LOWER PART EQS.    BAND WIDTH + 1 =   44
 STRESS PERIOD=  1 TIMESTEP=134 LAYER=  1 ZONE=  2 ACTIVE CELLS= 1885 NUMBER OF EQUATIONS=    1885

 SOLVING FOR HEAD 

 NO OUTPUT CONTROL FOR STRESS PERIOD    1   TIME STEP  135
 SOLVING FOR ZETA FOR LAYER     1 ZONE     2

     993 UPPER PART EQS.       980 LOWER PART EQS.    BAND WIDTH + 1 =   46
 STRESS PERIOD=  1 TIMESTEP=135 LAYER=  1 ZONE=  2 ACTIVE CELLS= 1973 NUMBER OF EQUATIONS=    1973

 SOLVING FOR HEAD 

 NO OUTPUT CONTROL FOR STRESS PERIOD    1   TIME STEP  136
 SOLVING FOR ZETA FOR LAYER     1 ZONE     2

     937 UPPER PART EQS.       948 LOWER PART EQS.    BAND WIDTH + 1 =   44
 STRESS PERIOD=  1 TIMESTEP=136 LAYER=  1 ZONE=  2 ACTIVE CELLS= 1885 NUMBER OF EQUATIONS=    1885

 SOLVING FOR HEAD 

 NO OUTPUT CONTROL FOR STRESS PERIOD    1   TIME STEP  137
 SOLVING FOR ZETA FOR LAYER     1 ZONE     2

     993 UPPER PART EQS.       980 LOWER PART EQS.    BAND WIDTH + 1 =   46
 STRESS PERIOD=  1 TIMESTEP=137 LAYER=  1 ZONE=  2 ACTIVE CELLS= 1973 NUMBER OF EQUATIONS=    1973

 SOLVING FOR HEAD 

 NO OUTPUT CONTROL FOR STRESS PERIOD    1   TIME STEP  138
 SOLVING FOR ZETA FOR LAYER     1 ZONE     2

     937 UPPER PART EQS.       948 LOWER PART EQS.    BAND WIDTH + 1 =   44
 STRESS PERIOD=  1 TIMESTEP=138 LAYER=  1 ZONE=  2 ACTIVE CELLS= 1885 NUMBER OF EQUATIONS=    1885

 SOLVING FOR HEAD 

 NO OUTPUT CONTROL FOR STRESS PERIOD    1   TIME STEP  139
 SOLVING FOR ZETA FOR LAYER     1 ZONE     2

     993 UPPER PART EQS.       980 LOWER PART EQS.    BAND WIDTH + 1 =   46
 STRESS PERIOD=  1 TIMESTEP=139 LAYER=  1 ZONE=  2 ACTIVE CELLS= 1973 NUMBER OF EQUATIONS=    1973

 SOLVING FOR HEAD 

 NO OUTPUT CONTROL FOR STRESS PERIOD    1   TIME STEP  140
 SOLVING FOR ZETA FOR LAYER     1 ZONE     2

     937 UPPER PART EQS.       948 LOWER PART EQS.    BAND WIDTH + 1 =   44
 STRESS PERIOD=  1 TIMESTEP=140 LAYER=  1 ZONE=  2 ACTIVE CELLS= 1885 NUMBER OF EQUATIONS=    1885

 SOLVING FOR HEAD 

 NO OUTPUT CONTROL FOR STRESS PERIOD    1   TIME STEP  141
 SOLVING FOR ZETA FOR LAYER     1 ZONE     2

     993 UPPER PART EQS.       980 LOWER PART EQS.    BAND WIDTH + 1 =   46
 STRESS PERIOD=  1 TIMESTEP=141 LAYER=  1 ZONE=  2 ACTIVE CELLS= 1973 NUMBER OF EQUATIONS=    1973

 SOLVING FOR HEAD 

 NO OUTPUT CONTROL FOR STRESS PERIOD    1   TIME STEP  142
 SOLVING FOR ZETA FOR LAYER     1 ZONE     2

     937 UPPER PART EQS.       948 LOWER PART EQS.    BAND WIDTH + 1 =   44
 STRESS PERIOD=  1 TIMESTEP=142 LAYER=  1 ZONE=  2 ACTIVE CELLS= 1885 NUMBER OF EQUATIONS=    1885

 SOLVING FOR HEAD 

 NO OUTPUT CONTROL FOR STRESS PERIOD    1   TIME STEP  143
 SOLVING FOR ZETA FOR LAYER     1 ZONE     2

     993 UPPER PART EQS.       980 LOWER PART EQS.    BAND WIDTH + 1 =   46
 STRESS PERIOD=  1 TIMESTEP=143 LAYER=  1 ZONE=  2 ACTIVE CELLS= 1973 NUMBER OF EQUATIONS=    1973

 SOLVING FOR HEAD 

 NO OUTPUT CONTROL FOR STRESS PERIOD    1   TIME STEP  144
 SOLVING FOR ZETA FOR LAYER     1 ZONE     2

     937 UPPER PART EQS.       948 LOWER PART EQS.    BAND WIDTH + 1 =   44
 STRESS PERIOD=  1 TIMESTEP=144 LAYER=  1 ZONE=  2 ACTIVE CELLS= 1885 NUMBER OF EQUATIONS=    1885

 SOLVING FOR HEAD 

 NO OUTPUT CONTROL FOR STRESS PERIOD    1   TIME STEP  145
 SOLVING FOR ZETA FOR LAYER     1 ZONE     2

     993 UPPER PART EQS.       980 LOWER PART EQS.    BAND WIDTH + 1 =   46
 STRESS PERIOD=  1 TIMESTEP=145 LAYER=  1 ZONE=  2 ACTIVE CELLS= 1973 NUMBER OF EQUATIONS=    1973

 SOLVING FOR HEAD 

 NO OUTPUT CONTROL FOR STRESS PERIOD    1   TIME STEP  146
 SOLVING FOR ZETA FOR LAYER     1 ZONE     2

     937 UPPER PART EQS.       948 LOWER PART EQS.    BAND WIDTH + 1 =   44
 STRESS PERIOD=  1 TIMESTEP=146 LAYER=  1 ZONE=  2 ACTIVE CELLS= 1885 NUMBER OF EQUATIONS=    1885

 SOLVING FOR HEAD 

 NO OUTPUT CONTROL FOR STRESS PERIOD    1   TIME STEP  147
 SOLVING FOR ZETA FOR LAYER     1 ZONE     2

     993 UPPER PART EQS.       980 LOWER PART EQS.    BAND WIDTH + 1 =   46
 STRESS PERIOD=  1 TIMESTEP=147 LAYER=  1 ZONE=  2 ACTIVE CELLS= 1973 NUMBER OF EQUATIONS=    1973

 SOLVING FOR HEAD 

 NO OUTPUT CONTROL FOR STRESS PERIOD    1   TIME STEP  148
 SOLVING FOR ZETA FOR LAYER     1 ZONE     2

     937 UPPER PART EQS.       948 LOWER PART EQS.    BAND WIDTH + 1 =   44
 STRESS PERIOD=  1 TIMESTEP=148 LAYER=  1 ZONE=  2 ACTIVE CELLS= 1885 NUMBER OF EQUATIONS=    1885

 SOLVING FOR HEAD 

 NO OUTPUT CONTROL FOR STRESS PERIOD    1   TIME STEP  149
 SOLVING FOR ZETA FOR LAYER     1 ZONE     2

     993 UPPER PART EQS.       980 LOWER PART EQS.    BAND WIDTH + 1 =   46
 STRESS PERIOD=  1 TIMESTEP=149 LAYER=  1 ZONE=  2 ACTIVE CELLS= 1973 NUMBER OF EQUATIONS=    1973

 SOLVING FOR HEAD 

 NO OUTPUT CONTROL FOR STRESS PERIOD    1   TIME STEP  150
 SOLVING FOR ZETA FOR LAYER     1 ZONE     2

     937 UPPER PART EQS.       948 LOWER PART EQS.    BAND WIDTH + 1 =   44
 STRESS PERIOD=  1 TIMESTEP=150 LAYER=  1 ZONE=  2 ACTIVE CELLS= 1885 NUMBER OF EQUATIONS=    1885

 SOLVING FOR HEAD 

 NO OUTPUT CONTROL FOR STRESS PERIOD    1   TIME STEP  151
 SOLVING FOR ZETA FOR LAYER     1 ZONE     2

     993 UPPER PART EQS.       980 LOWER PART EQS.    BAND WIDTH + 1 =   46
 STRESS PERIOD=  1 TIMESTEP=151 LAYER=  1 ZONE=  2 ACTIVE CELLS= 1973 NUMBER OF EQUATIONS=    1973

 SOLVING FOR HEAD 

 NO OUTPUT CONTROL FOR STRESS PERIOD    1   TIME STEP  152
 SOLVING FOR ZETA FOR LAYER     1 ZONE     2

     937 UPPER PART EQS.       948 LOWER PART EQS.    BAND WIDTH + 1 =   44
 STRESS PERIOD=  1 TIMESTEP=152 LAYER=  1 ZONE=  2 ACTIVE CELLS= 1885 NUMBER OF EQUATIONS=    1885

 SOLVING FOR HEAD 

 NO OUTPUT CONTROL FOR STRESS PERIOD    1   TIME STEP  153
 SOLVING FOR ZETA FOR LAYER     1 ZONE     2

     993 UPPER PART EQS.       980 LOWER PART EQS.    BAND WIDTH + 1 =   46
 STRESS PERIOD=  1 TIMESTEP=153 LAYER=  1 ZONE=  2 ACTIVE CELLS= 1973 NUMBER OF EQUATIONS=    1973

 SOLVING FOR HEAD 

 NO OUTPUT CONTROL FOR STRESS PERIOD    1   TIME STEP  154
 SOLVING FOR ZETA FOR LAYER     1 ZONE     2

     937 UPPER PART EQS.       948 LOWER PART EQS.    BAND WIDTH + 1 =   44
 STRESS PERIOD=  1 TIMESTEP=154 LAYER=  1 ZONE=  2 ACTIVE CELLS= 1885 NUMBER OF EQUATIONS=    1885

 SOLVING FOR HEAD 

 NO OUTPUT CONTROL FOR STRESS PERIOD    1   TIME STEP  155
 SOLVING FOR ZETA FOR LAYER     1 ZONE     2

     993 UPPER PART EQS.       980 LOWER PART EQS.    BAND WIDTH + 1 =   46
 STRESS PERIOD=  1 TIMESTEP=155 LAYER=  1 ZONE=  2 ACTIVE CELLS= 1973 NUMBER OF EQUATIONS=    1973

 SOLVING FOR HEAD 

 NO OUTPUT CONTROL FOR STRESS PERIOD    1   TIME STEP  156
 SOLVING FOR ZETA FOR LAYER     1 ZONE     2

     937 UPPER PART EQS.       948 LOWER PART EQS.    BAND WIDTH + 1 =   44
 STRESS PERIOD=  1 TIMESTEP=156 LAYER=  1 ZONE=  2 ACTIVE CELLS= 1885 NUMBER OF EQUATIONS=    1885

 SOLVING FOR HEAD 

 NO OUTPUT CONTROL FOR STRESS PERIOD    1   TIME STEP  157
 SOLVING FOR ZETA FOR LAYER     1 ZONE     2

     993 UPPER PART EQS.       988 LOWER PART EQS.    BAND WIDTH + 1 =   46
 STRESS PERIOD=  1 TIMESTEP=157 LAYER=  1 ZONE=  2 ACTIVE CELLS= 1981 NUMBER OF EQUATIONS=    1981

 SOLVING FOR HEAD 

 NO OUTPUT CONTROL FOR STRESS PERIOD    1   TIME STEP  158
 SOLVING FOR ZETA FOR LAYER     1 ZONE     2

     937 UPPER PART EQS.       940 LOWER PART EQS.    BAND WIDTH + 1 =   44
 STRESS PERIOD=  1 TIMESTEP=158 LAYER=  1 ZONE=  2 ACTIVE CELLS= 1877 NUMBER OF EQUATIONS=    1877

 SOLVING FOR HEAD 

 NO OUTPUT CONTROL FOR STRESS PERIOD    1   TIME STEP  159
 SOLVING FOR ZETA FOR LAYER     1 ZONE     2

     993 UPPER PART EQS.       988 LOWER PART EQS.    BAND WIDTH + 1 =   46
 STRESS PERIOD=  1 TIMESTEP=159 LAYER=  1 ZONE=  2 ACTIVE CELLS= 1981 NUMBER OF EQUATIONS=    1981

 SOLVING FOR HEAD 

 NO OUTPUT CONTROL FOR STRESS PERIOD    1   TIME STEP  160
 SOLVING FOR ZETA FOR LAYER     1 ZONE     2

     937 UPPER PART EQS.       940 LOWER PART EQS.    BAND WIDTH + 1 =   44
 STRESS PERIOD=  1 TIMESTEP=160 LAYER=  1 ZONE=  2 ACTIVE CELLS= 1877 NUMBER OF EQUATIONS=    1877

 SOLVING FOR HEAD 

 NO OUTPUT CONTROL FOR STRESS PERIOD    1   TIME STEP  161
 SOLVING FOR ZETA FOR LAYER     1 ZONE     2

     993 UPPER PART EQS.       988 LOWER PART EQS.    BAND WIDTH + 1 =   46
 STRESS PERIOD=  1 TIMESTEP=161 LAYER=  1 ZONE=  2 ACTIVE CELLS= 1981 NUMBER OF EQUATIONS=    1981

 SOLVING FOR HEAD 

 NO OUTPUT CONTROL FOR STRESS PERIOD    1   TIME STEP  162
 SOLVING FOR ZETA FOR LAYER     1 ZONE     2

     953 UPPER PART EQS.       956 LOWER PART EQS.    BAND WIDTH + 1 =   44
 STRESS PERIOD=  1 TIMESTEP=162 LAYER=  1 ZONE=  2 ACTIVE CELLS= 1909 NUMBER OF EQUATIONS=    1909

 SOLVING FOR HEAD 

 NO OUTPUT CONTROL FOR STRESS PERIOD    1   TIME STEP  163
 SOLVING FOR ZETA FOR LAYER     1 ZONE     2

     977 UPPER PART EQS.       972 LOWER PART EQS.    BAND WIDTH + 1 =   46
 STRESS PERIOD=  1 TIMESTEP=163 LAYER=  1 ZONE=  2 ACTIVE CELLS= 1949 NUMBER OF EQUATIONS=    1949

 SOLVING FOR HEAD 

 NO OUTPUT CONTROL FOR STRESS PERIOD    1   TIME STEP  164
 SOLVING FOR ZETA FOR LAYER     1 ZONE     2

     977 UPPER PART EQS.       980 LOWER PART EQS.    BAND WIDTH + 1 =   44
 STRESS PERIOD=  1 TIMESTEP=164 LAYER=  1 ZONE=  2 ACTIVE CELLS= 1957 NUMBER OF EQUATIONS=    1957

 SOLVING FOR HEAD 

 NO OUTPUT CONTROL FOR STRESS PERIOD    1   TIME STEP  165
 SOLVING FOR ZETA FOR LAYER     1 ZONE     2

     969 UPPER PART EQS.       964 LOWER PART EQS.    BAND WIDTH + 1 =   46
 STRESS PERIOD=  1 TIMESTEP=165 LAYER=  1 ZONE=  2 ACTIVE CELLS= 1933 NUMBER OF EQUATIONS=    1933

 SOLVING FOR HEAD 

 NO OUTPUT CONTROL FOR STRESS PERIOD    1   TIME STEP  166
 SOLVING FOR ZETA FOR LAYER     1 ZONE     2

     977 UPPER PART EQS.       972 LOWER PART EQS.    BAND WIDTH + 1 =   44
 STRESS PERIOD=  1 TIMESTEP=166 LAYER=  1 ZONE=  2 ACTIVE CELLS= 1949 NUMBER OF EQUATIONS=    1949

 SOLVING FOR HEAD 

 NO OUTPUT CONTROL FOR STRESS PERIOD    1   TIME STEP  167
 SOLVING FOR ZETA FOR LAYER     1 ZONE     2

     985 UPPER PART EQS.       988 LOWER PART EQS.    BAND WIDTH + 1 =   46
 STRESS PERIOD=  1 TIMESTEP=167 LAYER=  1 ZONE=  2 ACTIVE CELLS= 1973 NUMBER OF EQUATIONS=    1973

 SOLVING FOR HEAD 

 NO OUTPUT CONTROL FOR STRESS PERIOD    1   TIME STEP  168
 SOLVING FOR ZETA FOR LAYER     1 ZONE     2

     953 UPPER PART EQS.       956 LOWER PART EQS.    BAND WIDTH + 1 =   44
 STRESS PERIOD=  1 TIMESTEP=168 LAYER=  1 ZONE=  2 ACTIVE CELLS= 1909 NUMBER OF EQUATIONS=    1909

 SOLVING FOR HEAD 

 NO OUTPUT CONTROL FOR STRESS PERIOD    1   TIME STEP  169
 SOLVING FOR ZETA FOR LAYER     1 ZONE     2

    1001 UPPER PART EQS.      1004 LOWER PART EQS.    BAND WIDTH + 1 =   46
 STRESS PERIOD=  1 TIMESTEP=169 LAYER=  1 ZONE=  2 ACTIVE CELLS= 2005 NUMBER OF EQUATIONS=    2005

 SOLVING FOR HEAD 

 NO OUTPUT CONTROL FOR STRESS PERIOD    1   TIME STEP  170
 SOLVING FOR ZETA FOR LAYER     1 ZONE     2

     989 UPPER PART EQS.       980 LOWER PART EQS.    BAND WIDTH + 1 =   44
 STRESS PERIOD=  1 TIMESTEP=170 LAYER=  1 ZONE=  2 ACTIVE CELLS= 1969 NUMBER OF EQUATIONS=    1969

 SOLVING FOR HEAD 

 NO OUTPUT CONTROL FOR STRESS PERIOD    1   TIME STEP  171
 SOLVING FOR ZETA FOR LAYER     1 ZONE     2

     981 UPPER PART EQS.       964 LOWER PART EQS.    BAND WIDTH + 1 =   46
 STRESS PERIOD=  1 TIMESTEP=171 LAYER=  1 ZONE=  2 ACTIVE CELLS= 1945 NUMBER OF EQUATIONS=    1945

 SOLVING FOR HEAD 

 NO OUTPUT CONTROL FOR STRESS PERIOD    1   TIME STEP  172
 SOLVING FOR ZETA FOR LAYER     1 ZONE     2

     973 UPPER PART EQS.       980 LOWER PART EQS.    BAND WIDTH + 1 =   44
 STRESS PERIOD=  1 TIMESTEP=172 LAYER=  1 ZONE=  2 ACTIVE CELLS= 1953 NUMBER OF EQUATIONS=    1953

 SOLVING FOR HEAD 

 NO OUTPUT CONTROL FOR STRESS PERIOD    1   TIME STEP  173
 SOLVING FOR ZETA FOR LAYER     1 ZONE     2

    1009 UPPER PART EQS.       996 LOWER PART EQS.    BAND WIDTH + 1 =   46
 STRESS PERIOD=  1 TIMESTEP=173 LAYER=  1 ZONE=  2 ACTIVE CELLS= 2005 NUMBER OF EQUATIONS=    2005

 SOLVING FOR HEAD 

 NO OUTPUT CONTROL FOR STRESS PERIOD    1   TIME STEP  174
 SOLVING FOR ZETA FOR LAYER     1 ZONE     2

     961 UPPER PART EQS.       972 LOWER PART EQS.    BAND WIDTH + 1 =   44
 STRESS PERIOD=  1 TIMESTEP=174 LAYER=  1 ZONE=  2 ACTIVE CELLS= 1933 NUMBER OF EQUATIONS=    1933

 SOLVING FOR HEAD 

 NO OUTPUT CONTROL FOR STRESS PERIOD    1   TIME STEP  175
 SOLVING FOR ZETA FOR LAYER     1 ZONE     2

    1001 UPPER PART EQS.       996 LOWER PART EQS.    BAND WIDTH + 1 =   46
 STRESS PERIOD=  1 TIMESTEP=175 LAYER=  1 ZONE=  2 ACTIVE CELLS= 1997 NUMBER OF EQUATIONS=    1997

 SOLVING FOR HEAD 

 NO OUTPUT CONTROL FOR STRESS PERIOD    1   TIME STEP  176
 SOLVING FOR ZETA FOR LAYER     1 ZONE     2

     973 UPPER PART EQS.       996 LOWER PART EQS.    BAND WIDTH + 1 =   44
 STRESS PERIOD=  1 TIMESTEP=176 LAYER=  1 ZONE=  2 ACTIVE CELLS= 1969 NUMBER OF EQUATIONS=    1969

 SOLVING FOR HEAD 

 NO OUTPUT CONTROL FOR STRESS PERIOD    1   TIME STEP  177
 SOLVING FOR ZETA FOR LAYER     1 ZONE     2

    1009 UPPER PART EQS.      1004 LOWER PART EQS.    BAND WIDTH + 1 =   46
 STRESS PERIOD=  1 TIMESTEP=177 LAYER=  1 ZONE=  2 ACTIVE CELLS= 2013 NUMBER OF EQUATIONS=    2013

 SOLVING FOR HEAD 

 NO OUTPUT CONTROL FOR STRESS PERIOD    1   TIME STEP  178
 SOLVING FOR ZETA FOR LAYER     1 ZONE     2

     977 UPPER PART EQS.       972 LOWER PART EQS.    BAND WIDTH + 1 =   44
 STRESS PERIOD=  1 TIMESTEP=178 LAYER=  1 ZONE=  2 ACTIVE CELLS= 1949 NUMBER OF EQUATIONS=    1949

 SOLVING FOR HEAD 

 NO OUTPUT CONTROL FOR STRESS PERIOD    1   TIME STEP  179
 SOLVING FOR ZETA FOR LAYER     1 ZONE     2

    1009 UPPER PART EQS.      1004 LOWER PART EQS.    BAND WIDTH + 1 =   46
 STRESS PERIOD=  1 TIMESTEP=179 LAYER=  1 ZONE=  2 ACTIVE CELLS= 2013 NUMBER OF EQUATIONS=    2013

 SOLVING FOR HEAD 

 NO OUTPUT CONTROL FOR STRESS PERIOD    1   TIME STEP  180
 SOLVING FOR ZETA FOR LAYER     1 ZONE     2

     981 UPPER PART EQS.       988 LOWER PART EQS.    BAND WIDTH + 1 =   46
 STRESS PERIOD=  1 TIMESTEP=180 LAYER=  1 ZONE=  2 ACTIVE CELLS= 1969 NUMBER OF EQUATIONS=    1969

 SOLVING FOR HEAD 

 NO OUTPUT CONTROL FOR STRESS PERIOD    1   TIME STEP  181
 SOLVING FOR ZETA FOR LAYER     1 ZONE     2

    1009 UPPER PART EQS.      1004 LOWER PART EQS.    BAND WIDTH + 1 =   46
 STRESS PERIOD=  1 TIMESTEP=181 LAYER=  1 ZONE=  2 ACTIVE CELLS= 2013 NUMBER OF EQUATIONS=    2013

 SOLVING FOR HEAD 

 NO OUTPUT CONTROL FOR STRESS PERIOD    1   TIME STEP  182
 SOLVING FOR ZETA FOR LAYER     1 ZONE     2

     989 UPPER PART EQS.       988 LOWER PART EQS.    BAND WIDTH + 1 =   44
 STRESS PERIOD=  1 TIMESTEP=182 LAYER=  1 ZONE=  2 ACTIVE CELLS= 1977 NUMBER OF EQUATIONS=    1977

 SOLVING FOR HEAD 

 NO OUTPUT CONTROL FOR STRESS PERIOD    1   TIME STEP  183
 SOLVING FOR ZETA FOR LAYER     1 ZONE     2

    1009 UPPER PART EQS.       996 LOWER PART EQS.    BAND WIDTH + 1 =   46
 STRESS PERIOD=  1 TIMESTEP=183 LAYER=  1 ZONE=  2 ACTIVE CELLS= 2005 NUMBER OF EQUATIONS=    2005

 SOLVING FOR HEAD 

 NO OUTPUT CONTROL FOR STRESS PERIOD    1   TIME STEP  184
 SOLVING FOR ZETA FOR LAYER     1 ZONE     2

     989 UPPER PART EQS.       996 LOWER PART EQS.    BAND WIDTH + 1 =   44
 STRESS PERIOD=  1 TIMESTEP=184 LAYER=  1 ZONE=  2 ACTIVE CELLS= 1985 NUMBER OF EQUATIONS=    1985

 SOLVING FOR HEAD 

 NO OUTPUT CONTROL FOR STRESS PERIOD    1   TIME STEP  185
 SOLVING FOR ZETA FOR LAYER     1 ZONE     2

    1009 UPPER PART EQS.      1004 LOWER PART EQS.    BAND WIDTH + 1 =   46
 STRESS PERIOD=  1 TIMESTEP=185 LAYER=  1 ZONE=  2 ACTIVE CELLS= 2013 NUMBER OF EQUATIONS=    2013

 SOLVING FOR HEAD 

 NO OUTPUT CONTROL FOR STRESS PERIOD    1   TIME STEP  186
 SOLVING FOR ZETA FOR LAYER     1 ZONE     2

     989 UPPER PART EQS.       988 LOWER PART EQS.    BAND WIDTH + 1 =   44
 STRESS PERIOD=  1 TIMESTEP=186 LAYER=  1 ZONE=  2 ACTIVE CELLS= 1977 NUMBER OF EQUATIONS=    1977

 SOLVING FOR HEAD 

 NO OUTPUT CONTROL FOR STRESS PERIOD    1   TIME STEP  187
 SOLVING FOR ZETA FOR LAYER     1 ZONE     2

    1009 UPPER PART EQS.      1004 LOWER PART EQS.    BAND WIDTH + 1 =   46
 STRESS PERIOD=  1 TIMESTEP=187 LAYER=  1 ZONE=  2 ACTIVE CELLS= 2013 NUMBER OF EQUATIONS=    2013

 SOLVING FOR HEAD 

 NO OUTPUT CONTROL FOR STRESS PERIOD    1   TIME STEP  188
 SOLVING FOR ZETA FOR LAYER     1 ZONE     2

     989 UPPER PART EQS.       996 LOWER PART EQS.    BAND WIDTH + 1 =   44
 STRESS PERIOD=  1 TIMESTEP=188 LAYER=  1 ZONE=  2 ACTIVE CELLS= 1985 NUMBER OF EQUATIONS=    1985

 SOLVING FOR HEAD 

 NO OUTPUT CONTROL FOR STRESS PERIOD    1   TIME STEP  189
 SOLVING FOR ZETA FOR LAYER     1 ZONE     2

    1009 UPPER PART EQS.      1004 LOWER PART EQS.    BAND WIDTH + 1 =   46
 STRESS PERIOD=  1 TIMESTEP=189 LAYER=  1 ZONE=  2 ACTIVE CELLS= 2013 NUMBER OF EQUATIONS=    2013

 SOLVING FOR HEAD 

 NO OUTPUT CONTROL FOR STRESS PERIOD    1   TIME STEP  190
 SOLVING FOR ZETA FOR LAYER     1 ZONE     2

     992 UPPER PART EQS.       992 LOWER PART EQS.    BAND WIDTH + 1 =   45
 STRESS PERIOD=  1 TIMESTEP=190 LAYER=  1 ZONE=  2 ACTIVE CELLS= 1984 NUMBER OF EQUATIONS=    1984

 SOLVING FOR HEAD 

 NO OUTPUT CONTROL FOR STRESS PERIOD    1   TIME STEP  191
 SOLVING FOR ZETA FOR LAYER     1 ZONE     2

     980 UPPER PART EQS.       980 LOWER PART EQS.    BAND WIDTH + 1 =   45
 STRESS PERIOD=  1 TIMESTEP=191 LAYER=  1 ZONE=  2 ACTIVE CELLS= 1960 NUMBER OF EQUATIONS=    1960
 SOLVING FOR ZETA FOR LAYER     2 ZONE     2

       5 UPPER PART EQS.         4 LOWER PART EQS.    BAND WIDTH + 1 =    4
 STRESS PERIOD=  1 TIMESTEP=191 LAYER=  2 ZONE=  2 ACTIVE CELLS=    9 NUMBER OF EQUATIONS=       9

 SOLVING FOR HEAD 

 NO OUTPUT CONTROL FOR STRESS PERIOD    1   TIME STEP  192
 SOLVING FOR ZETA FOR LAYER     1 ZONE     2

     960 UPPER PART EQS.       960 LOWER PART EQS.    BAND WIDTH + 1 =   41
 STRESS PERIOD=  1 TIMESTEP=192 LAYER=  1 ZONE=  2 ACTIVE CELLS= 1920 NUMBER OF EQUATIONS=    1920
 SOLVING FOR ZETA FOR LAYER     2 ZONE     2

      21 UPPER PART EQS.        16 LOWER PART EQS.    BAND WIDTH + 1 =    8
 STRESS PERIOD=  1 TIMESTEP=192 LAYER=  2 ZONE=  2 ACTIVE CELLS=   37 NUMBER OF EQUATIONS=      37

 SOLVING FOR HEAD 

 NO OUTPUT CONTROL FOR STRESS PERIOD    1   TIME STEP  193
 SOLVING FOR ZETA FOR LAYER     1 ZONE     2

     956 UPPER PART EQS.       952 LOWER PART EQS.    BAND WIDTH + 1 =   41
 STRESS PERIOD=  1 TIMESTEP=193 LAYER=  1 ZONE=  2 ACTIVE CELLS= 1908 NUMBER OF EQUATIONS=    1908
 SOLVING FOR ZETA FOR LAYER     2 ZONE     2

      37 UPPER PART EQS.        36 LOWER PART EQS.    BAND WIDTH + 1 =   10
 STRESS PERIOD=  1 TIMESTEP=193 LAYER=  2 ZONE=  2 ACTIVE CELLS=   73 NUMBER OF EQUATIONS=      73

 SOLVING FOR HEAD 

 NO OUTPUT CONTROL FOR STRESS PERIOD    1   TIME STEP  194
 SOLVING FOR ZETA FOR LAYER     1 ZONE     2

     926 UPPER PART EQS.       936 LOWER PART EQS.    BAND WIDTH + 1 =   45
 STRESS PERIOD=  1 TIMESTEP=194 LAYER=  1 ZONE=  2 ACTIVE CELLS= 1862 NUMBER OF EQUATIONS=    1862
 SOLVING FOR ZETA FOR LAYER     2 ZONE     2

      53 UPPER PART EQS.        52 LOWER PART EQS.    BAND WIDTH + 1 =   10
 STRESS PERIOD=  1 TIMESTEP=194 LAYER=  2 ZONE=  2 ACTIVE CELLS=  105 NUMBER OF EQUATIONS=     105

 SOLVING FOR HEAD 

 NO OUTPUT CONTROL FOR STRESS PERIOD    1   TIME STEP  195
 SOLVING FOR ZETA FOR LAYER     1 ZONE     2

     940 UPPER PART EQS.       928 LOWER PART EQS.    BAND WIDTH + 1 =   47
 STRESS PERIOD=  1 TIMESTEP=195 LAYER=  1 ZONE=  2 ACTIVE CELLS= 1868 NUMBER OF EQUATIONS=    1868
 SOLVING FOR ZETA FOR LAYER     2 ZONE     2

      63 UPPER PART EQS.        60 LOWER PART EQS.    BAND WIDTH + 1 =   12
 STRESS PERIOD=  1 TIMESTEP=195 LAYER=  2 ZONE=  2 ACTIVE CELLS=  123 NUMBER OF EQUATIONS=     123

 SOLVING FOR HEAD 

 NO OUTPUT CONTROL FOR STRESS PERIOD    1   TIME STEP  196
 SOLVING FOR ZETA FOR LAYER     1 ZONE     2

     908 UPPER PART EQS.       908 LOWER PART EQS.    BAND WIDTH + 1 =   37
 STRESS PERIOD=  1 TIMESTEP=196 LAYER=  1 ZONE=  2 ACTIVE CELLS= 1816 NUMBER OF EQUATIONS=    1816
 SOLVING FOR ZETA FOR LAYER     2 ZONE     2

      69 UPPER PART EQS.        76 LOWER PART EQS.    BAND WIDTH + 1 =   14
 STRESS PERIOD=  1 TIMESTEP=196 LAYER=  2 ZONE=  2 ACTIVE CELLS=  145 NUMBER OF EQUATIONS=     145

 SOLVING FOR HEAD 

 NO OUTPUT CONTROL FOR STRESS PERIOD    1   TIME STEP  197
 SOLVING FOR ZETA FOR LAYER     1 ZONE     2

     904 UPPER PART EQS.       908 LOWER PART EQS.    BAND WIDTH + 1 =   39
 STRESS PERIOD=  1 TIMESTEP=197 LAYER=  1 ZONE=  2 ACTIVE CELLS= 1812 NUMBER OF EQUATIONS=    1812
 SOLVING FOR ZETA FOR LAYER     2 ZONE     2

      89 UPPER PART EQS.        88 LOWER PART EQS.    BAND WIDTH + 1 =   14
 STRESS PERIOD=  1 TIMESTEP=197 LAYER=  2 ZONE=  2 ACTIVE CELLS=  177 NUMBER OF EQUATIONS=     177

 SOLVING FOR HEAD 

 NO OUTPUT CONTROL FOR STRESS PERIOD    1   TIME STEP  198
 SOLVING FOR ZETA FOR LAYER     1 ZONE     2

     900 UPPER PART EQS.       886 LOWER PART EQS.    BAND WIDTH + 1 =   49
 STRESS PERIOD=  1 TIMESTEP=198 LAYER=  1 ZONE=  2 ACTIVE CELLS= 1786 NUMBER OF EQUATIONS=    1786
 SOLVING FOR ZETA FOR LAYER     2 ZONE     2

      97 UPPER PART EQS.        96 LOWER PART EQS.    BAND WIDTH + 1 =   14
 STRESS PERIOD=  1 TIMESTEP=198 LAYER=  2 ZONE=  2 ACTIVE CELLS=  193 NUMBER OF EQUATIONS=     193

 SOLVING FOR HEAD 

 NO OUTPUT CONTROL FOR STRESS PERIOD    1   TIME STEP  199
 SOLVING FOR ZETA FOR LAYER     1 ZONE     2

     888 UPPER PART EQS.       892 LOWER PART EQS.    BAND WIDTH + 1 =   41
 STRESS PERIOD=  1 TIMESTEP=199 LAYER=  1 ZONE=  2 ACTIVE CELLS= 1780 NUMBER OF EQUATIONS=    1780
 SOLVING FOR ZETA FOR LAYER     2 ZONE     2

      97 UPPER PART EQS.       110 LOWER PART EQS.    BAND WIDTH + 1 =   16
 STRESS PERIOD=  1 TIMESTEP=199 LAYER=  2 ZONE=  2 ACTIVE CELLS=  207 NUMBER OF EQUATIONS=     207

 SOLVING FOR HEAD 

 OUTPUT CONTROL FOR STRESS PERIOD    1   TIME STEP  200
    PRINT BUDGET
    SAVE HEAD FOR ALL LAYERS
 SOLVING FOR ZETA FOR LAYER     1 ZONE     2

     870 UPPER PART EQS.       876 LOWER PART EQS.    BAND WIDTH + 1 =   41
 STRESS PERIOD=  1 TIMESTEP=200 LAYER=  1 ZONE=  2 ACTIVE CELLS= 1746 NUMBER OF EQUATIONS=    1746
 SOLVING FOR ZETA FOR LAYER     2 ZONE     2

     121 UPPER PART EQS.       112 LOWER PART EQS.    BAND WIDTH + 1 =   16
 STRESS PERIOD=  1 TIMESTEP=200 LAYER=  2 ZONE=  2 ACTIVE CELLS=  233 NUMBER OF EQUATIONS=     233
 UBUDSV SAVING "      ZETASRF  1" ON UNIT 55 AT TIME STEP200, STRESS PERIOD    1


                      VOLUMETRIC SWI ZONE BUDGET FOR ENTIRE MODEL
                     AT END OF TIME STEP  200 IN STRESS PERIOD   1
                                      ZONE     1
  -----------------------------------------------------------------------------------

        CUMULATIVE VOLUMES      L**3       RATES FOR THIS TIME STEP      L**3/T
        ------------------                 ------------------------

              IN:                                      IN:
              ---                                      ---
             BOUNDARIES =    24559464.0000            BOUNDARIES =        1681.0000
          CONSTANT HEAD =           0.0000         CONSTANT HEAD =           0.0000
            ZONE CHANGE =      173314.4844           ZONE CHANGE =       3.7279E-02
       ZONE CHG TIP/TOE =       85068.3438      ZONE CHG TIP/TOE =           4.4595
            ZONE MIXING =           0.0000           ZONE MIXING =           0.0000

               TOTAL IN =    24817846.0000              TOTAL IN =        1685.4968

             OUT:                                     OUT:
             ----                                     ----
             BOUNDARIES =    12210992.0000            BOUNDARIES =        1251.6854
          CONSTANT HEAD =           0.0000         CONSTANT HEAD =           0.0000
            ZONE CHANGE =    13090807.0000           ZONE CHANGE =         424.4717
       ZONE CHG TIP/TOE =       89728.5234      ZONE CHG TIP/TOE =           8.9441
            ZONE MIXING =           0.0000           ZONE MIXING =           0.0000

              TOTAL OUT =    25391528.0000             TOTAL OUT =        1685.1013

               IN - OUT =     -573682.0000              IN - OUT =           0.3955

    PERCENT DISCREPANCY =          -2.29     PERCENT DISCREPANCY =           0.02



                      VOLUMETRIC SWI ZONE BUDGET FOR ENTIRE MODEL
                     AT END OF TIME STEP  200 IN STRESS PERIOD   1
                                      ZONE     2
  -----------------------------------------------------------------------------------

        CUMULATIVE VOLUMES      L**3       RATES FOR THIS TIME STEP      L**3/T
        ------------------                 ------------------------

              IN:                                      IN:
              ---                                      ---
             BOUNDARIES =           0.0000            BOUNDARIES =           0.0000
          CONSTANT HEAD =           0.0000         CONSTANT HEAD =           0.0000
            ZONE CHANGE =    13087788.0000           ZONE CHANGE =         422.0656
       ZONE CHG TIP/TOE =      666034.2500      ZONE CHG TIP/TOE =           9.0053
            ZONE MIXING =           0.0000           ZONE MIXING =           0.0000

               TOTAL IN =    13753822.0000              TOTAL IN =         431.0709

             OUT:                                     OUT:
             ----                                     ----
             BOUNDARIES =    12348429.0000            BOUNDARIES =         429.3146
          CONSTANT HEAD =           0.0000         CONSTANT HEAD =           0.0000
            ZONE CHANGE =      749620.4375           ZONE CHANGE =       9.8475E-02
       ZONE CHG TIP/TOE =       82048.7969      ZONE CHG TIP/TOE =           2.0534
            ZONE MIXING =           0.0000           ZONE MIXING =           0.0000

              TOTAL OUT =    13180098.0000             TOTAL OUT =         431.4664

               IN - OUT =      573724.0000              IN - OUT =          -0.3955

    PERCENT DISCREPANCY =           4.26     PERCENT DISCREPANCY =          -0.09


 HEAD WILL BE SAVED ON UNIT   51 AT END OF TIME STEP  200, STRESS PERIOD    1
1
  VOLUMETRIC BUDGET FOR ENTIRE MODEL AT END OF TIME STEP  200, STRESS PERIOD   1
  ------------------------------------------------------------------------------

     CUMULATIVE VOLUMES      L**3       RATES FOR THIS TIME STEP      L**3/T
     ------------------                 ------------------------

           IN:                                      IN:
           ---                                      ---
             STORAGE =           0.0000               STORAGE =           0.0000
       CONSTANT HEAD =           0.0000         CONSTANT HEAD =           0.0000
               WELLS =           0.0000                 WELLS =           0.0000
     HEAD DEP BOUNDS =           0.0000       HEAD DEP BOUNDS =           0.0000
            RECHARGE =    24559464.0000              RECHARGE =        1681.0000
          SWIADDTOCH =           0.0000            SWIADDTOCH =           0.0000

            TOTAL IN =    24559464.0000              TOTAL IN =        1681.0000

          OUT:                                     OUT:
          ----                                     ----
             STORAGE =           0.0000               STORAGE =           0.0000
       CONSTANT HEAD =           0.0000         CONSTANT HEAD =           0.0000
               WELLS =           0.0000                 WELLS =           0.0000
     HEAD DEP BOUNDS =    24559464.0000       HEAD DEP BOUNDS =        1681.0000
            RECHARGE =           0.0000              RECHARGE =           0.0000
          SWIADDTOCH =           0.0000            SWIADDTOCH =           0.0000

           TOTAL OUT =    24559464.0000             TOTAL OUT =        1681.0000

            IN - OUT =           0.0000              IN - OUT =           0.0000

 PERCENT DISCREPANCY =           0.00     PERCENT DISCREPANCY =           0.00






         TIME SUMMARY AT END OF TIME STEP  200 IN STRESS PERIOD    1
                    SECONDS     MINUTES      HOURS       DAYS        YEARS
                    -----------------------------------------------------------
   TIME STEP LENGTH 6.31152E+06 1.05192E+05  1753.2      73.050     0.20000    
 STRESS PERIOD TIME 1.26230E+09 2.10384E+07 3.50639E+05  14610.      40.000    
         TOTAL TIME 1.26230E+09 2.10384E+07 3.50639E+05  14610.      40.000    
1

 SOLVING FOR HEAD 

 NO OUTPUT CONTROL FOR STRESS PERIOD    1   TIME STEP  201
 SOLVING FOR ZETA FOR LAYER     1 ZONE     2

     872 UPPER PART EQS.       874 LOWER PART EQS.    BAND WIDTH + 1 =   35
 STRESS PERIOD=  1 TIMESTEP=201 LAYER=  1 ZONE=  2 ACTIVE CELLS= 1746 NUMBER OF EQUATIONS=    1746
 SOLVING FOR ZETA FOR LAYER     2 ZONE     2

     127 UPPER PART EQS.       120 LOWER PART EQS.    BAND WIDTH + 1 =   17
 STRESS PERIOD=  1 TIMESTEP=201 LAYER=  2 ZONE=  2 ACTIVE CELLS=  247 NUMBER OF EQUATIONS=     247

 SOLVING FOR HEAD 

 NO OUTPUT CONTROL FOR STRESS PERIOD    1   TIME STEP  202
 SOLVING FOR ZETA FOR LAYER     1 ZONE     2

     860 UPPER PART EQS.       852 LOWER PART EQS.    BAND WIDTH + 1 =   41
 STRESS PERIOD=  1 TIMESTEP=202 LAYER=  1 ZONE=  2 ACTIVE CELLS= 1712 NUMBER OF EQUATIONS=    1712
 SOLVING FOR ZETA FOR LAYER     2 ZONE     2

     129 UPPER PART EQS.       130 LOWER PART EQS.    BAND WIDTH + 1 =   17
 STRESS PERIOD=  1 TIMESTEP=202 LAYER=  2 ZONE=  2 ACTIVE CELLS=  259 NUMBER OF EQUATIONS=     259

 SOLVING FOR HEAD 

 NO OUTPUT CONTROL FOR STRESS PERIOD    1   TIME STEP  203
 SOLVING FOR ZETA FOR LAYER     1 ZONE     2

     856 UPPER PART EQS.       856 LOWER PART EQS.    BAND WIDTH + 1 =   35
 STRESS PERIOD=  1 TIMESTEP=203 LAYER=  1 ZONE=  2 ACTIVE CELLS= 1712 NUMBER OF EQUATIONS=    1712
 SOLVING FOR ZETA FOR LAYER     2 ZONE     2

     137 UPPER PART EQS.       144 LOWER PART EQS.    BAND WIDTH + 1 =   18
 STRESS PERIOD=  1 TIMESTEP=203 LAYER=  2 ZONE=  2 ACTIVE CELLS=  281 NUMBER OF EQUATIONS=     281

 SOLVING FOR HEAD 

 NO OUTPUT CONTROL FOR STRESS PERIOD    1   TIME STEP  204
 SOLVING FOR ZETA FOR LAYER     1 ZONE     2

     840 UPPER PART EQS.       842 LOWER PART EQS.    BAND WIDTH + 1 =   35
 STRESS PERIOD=  1 TIMESTEP=204 LAYER=  1 ZONE=  2 ACTIVE CELLS= 1682 NUMBER OF EQUATIONS=    1682
 SOLVING FOR ZETA FOR LAYER     2 ZONE     2

     153 UPPER PART EQS.       148 LOWER PART EQS.    BAND WIDTH + 1 =   16
 STRESS PERIOD=  1 TIMESTEP=204 LAYER=  2 ZONE=  2 ACTIVE CELLS=  301 NUMBER OF EQUATIONS=     301

 SOLVING FOR HEAD 

 NO OUTPUT CONTROL FOR STRESS PERIOD    1   TIME STEP  205
 SOLVING FOR ZETA FOR LAYER     1 ZONE     2

     848 UPPER PART EQS.       848 LOWER PART EQS.    BAND WIDTH + 1 =   35
 STRESS PERIOD=  1 TIMESTEP=205 LAYER=  1 ZONE=  2 ACTIVE CELLS= 1696 NUMBER OF EQUATIONS=    1696
 SOLVING FOR ZETA FOR LAYER     2 ZONE     2

     157 UPPER PART EQS.       154 LOWER PART EQS.    BAND WIDTH + 1 =   18
 STRESS PERIOD=  1 TIMESTEP=205 LAYER=  2 ZONE=  2 ACTIVE CELLS=  311 NUMBER OF EQUATIONS=     311

 SOLVING FOR HEAD 

 NO OUTPUT CONTROL FOR STRESS PERIOD    1   TIME STEP  206
 SOLVING FOR ZETA FOR LAYER     1 ZONE     2

     822 UPPER PART EQS.       832 LOWER PART EQS.    BAND WIDTH + 1 =   39
 STRESS PERIOD=  1 TIMESTEP=206 LAYER=  1 ZONE=  2 ACTIVE CELLS= 1654 NUMBER OF EQUATIONS=    1654
 SOLVING FOR ZETA FOR LAYER     2 ZONE     2

     161 UPPER PART EQS.       156 LOWER PART EQS.    BAND WIDTH + 1 =   19
 STRESS PERIOD=  1 TIMESTEP=206 LAYER=  2 ZONE=  2 ACTIVE CELLS=  317 NUMBER OF EQUATIONS=     317

 SOLVING FOR HEAD 

 NO OUTPUT CONTROL FOR STRESS PERIOD    1   TIME STEP  207
 SOLVING FOR ZETA FOR LAYER     1 ZONE     2

     832 UPPER PART EQS.       830 LOWER PART EQS.    BAND WIDTH + 1 =   33
 STRESS PERIOD=  1 TIMESTEP=207 LAYER=  1 ZONE=  2 ACTIVE CELLS= 1662 NUMBER OF EQUATIONS=    1662
 SOLVING FOR ZETA FOR LAYER     2 ZONE     2

     173 UPPER PART EQS.       166 LOWER PART EQS.    BAND WIDTH + 1 =   18
 STRESS PERIOD=  1 TIMESTEP=207 LAYER=  2 ZONE=  2 ACTIVE CELLS=  339 NUMBER OF EQUATIONS=     339

 SOLVING FOR HEAD 

 NO OUTPUT CONTROL FOR STRESS PERIOD    1   TIME STEP  208
 SOLVING FOR ZETA FOR LAYER     1 ZONE     2

     824 UPPER PART EQS.       808 LOWER PART EQS.    BAND WIDTH + 1 =   45
 STRESS PERIOD=  1 TIMESTEP=208 LAYER=  1 ZONE=  2 ACTIVE CELLS= 1632 NUMBER OF EQUATIONS=    1632
 SOLVING FOR ZETA FOR LAYER     2 ZONE     2

     177 UPPER PART EQS.       182 LOWER PART EQS.    BAND WIDTH + 1 =   19
 STRESS PERIOD=  1 TIMESTEP=208 LAYER=  2 ZONE=  2 ACTIVE CELLS=  359 NUMBER OF EQUATIONS=     359

 SOLVING FOR HEAD 

 NO OUTPUT CONTROL FOR STRESS PERIOD    1   TIME STEP  209
 SOLVING FOR ZETA FOR LAYER     1 ZONE     2

     820 UPPER PART EQS.       816 LOWER PART EQS.    BAND WIDTH + 1 =   33
 STRESS PERIOD=  1 TIMESTEP=209 LAYER=  1 ZONE=  2 ACTIVE CELLS= 1636 NUMBER OF EQUATIONS=    1636
 SOLVING FOR ZETA FOR LAYER     2 ZONE     2

     177 UPPER PART EQS.       188 LOWER PART EQS.    BAND WIDTH + 1 =   20
 STRESS PERIOD=  1 TIMESTEP=209 LAYER=  2 ZONE=  2 ACTIVE CELLS=  365 NUMBER OF EQUATIONS=     365

 SOLVING FOR HEAD 

 NO OUTPUT CONTROL FOR STRESS PERIOD    1   TIME STEP  210
 SOLVING FOR ZETA FOR LAYER     1 ZONE     2

     800 UPPER PART EQS.       804 LOWER PART EQS.    BAND WIDTH + 1 =   35
 STRESS PERIOD=  1 TIMESTEP=210 LAYER=  1 ZONE=  2 ACTIVE CELLS= 1604 NUMBER OF EQUATIONS=    1604
 SOLVING FOR ZETA FOR LAYER     2 ZONE     2

     189 UPPER PART EQS.       188 LOWER PART EQS.    BAND WIDTH + 1 =   18
 STRESS PERIOD=  1 TIMESTEP=210 LAYER=  2 ZONE=  2 ACTIVE CELLS=  377 NUMBER OF EQUATIONS=     377

 SOLVING FOR HEAD 

 NO OUTPUT CONTROL FOR STRESS PERIOD    1   TIME STEP  211
 SOLVING FOR ZETA FOR LAYER     1 ZONE     2

     812 UPPER PART EQS.       812 LOWER PART EQS.    BAND WIDTH + 1 =   33
 STRESS PERIOD=  1 TIMESTEP=211 LAYER=  1 ZONE=  2 ACTIVE CELLS= 1624 NUMBER OF EQUATIONS=    1624
 SOLVING FOR ZETA FOR LAYER     2 ZONE     2

     197 UPPER PART EQS.       196 LOWER PART EQS.    BAND WIDTH + 1 =   20
 STRESS PERIOD=  1 TIMESTEP=211 LAYER=  2 ZONE=  2 ACTIVE CELLS=  393 NUMBER OF EQUATIONS=     393

 SOLVING FOR HEAD 

 NO OUTPUT CONTROL FOR STRESS PERIOD    1   TIME STEP  212
 SOLVING FOR ZETA FOR LAYER     1 ZONE     2

     800 UPPER PART EQS.       800 LOWER PART EQS.    BAND WIDTH + 1 =   33
 STRESS PERIOD=  1 TIMESTEP=212 LAYER=  1 ZONE=  2 ACTIVE CELLS= 1600 NUMBER OF EQUATIONS=    1600
 SOLVING FOR ZETA FOR LAYER     2 ZONE     2

     199 UPPER PART EQS.       204 LOWER PART EQS.    BAND WIDTH + 1 =   20
 STRESS PERIOD=  1 TIMESTEP=212 LAYER=  2 ZONE=  2 ACTIVE CELLS=  403 NUMBER OF EQUATIONS=     403

 SOLVING FOR HEAD 

 NO OUTPUT CONTROL FOR STRESS PERIOD    1   TIME STEP  213
 SOLVING FOR ZETA FOR LAYER     1 ZONE     2

     800 UPPER PART EQS.       804 LOWER PART EQS.    BAND WIDTH + 1 =   37
 STRESS PERIOD=  1 TIMESTEP=213 LAYER=  1 ZONE=  2 ACTIVE CELLS= 1604 NUMBER OF EQUATIONS=    1604
 SOLVING FOR ZETA FOR LAYER     2 ZONE     2

     217 UPPER PART EQS.       208 LOWER PART EQS.    BAND WIDTH + 1 =   22
 STRESS PERIOD=  1 TIMESTEP=213 LAYER=  2 ZONE=  2 ACTIVE CELLS=  425 NUMBER OF EQUATIONS=     425

 SOLVING FOR HEAD 

 NO OUTPUT CONTROL FOR STRESS PERIOD    1   TIME STEP  214
 SOLVING FOR ZETA FOR LAYER     1 ZONE     2

     784 UPPER PART EQS.       792 LOWER PART EQS.    BAND WIDTH + 1 =   35
 STRESS PERIOD=  1 TIMESTEP=214 LAYER=  1 ZONE=  2 ACTIVE CELLS= 1576 NUMBER OF EQUATIONS=    1576
 SOLVING FOR ZETA FOR LAYER     2 ZONE     2

     221 UPPER PART EQS.       208 LOWER PART EQS.    BAND WIDTH + 1 =   22
 STRESS PERIOD=  1 TIMESTEP=214 LAYER=  2 ZONE=  2 ACTIVE CELLS=  429 NUMBER OF EQUATIONS=     429

 SOLVING FOR HEAD 

 NO OUTPUT CONTROL FOR STRESS PERIOD    1   TIME STEP  215
 SOLVING FOR ZETA FOR LAYER     1 ZONE     2

     812 UPPER PART EQS.       800 LOWER PART EQS.    BAND WIDTH + 1 =   37
 STRESS PERIOD=  1 TIMESTEP=215 LAYER=  1 ZONE=  2 ACTIVE CELLS= 1612 NUMBER OF EQUATIONS=    1612
 SOLVING FOR ZETA FOR LAYER     2 ZONE     2

     221 UPPER PART EQS.       224 LOWER PART EQS.    BAND WIDTH + 1 =   20
 STRESS PERIOD=  1 TIMESTEP=215 LAYER=  2 ZONE=  2 ACTIVE CELLS=  445 NUMBER OF EQUATIONS=     445

 SOLVING FOR HEAD 

 NO OUTPUT CONTROL FOR STRESS PERIOD    1   TIME STEP  216
 SOLVING FOR ZETA FOR LAYER     1 ZONE     2

     804 UPPER PART EQS.       804 LOWER PART EQS.    BAND WIDTH + 1 =   33
 STRESS PERIOD=  1 TIMESTEP=216 LAYER=  1 ZONE=  2 ACTIVE CELLS= 1608 NUMBER OF EQUATIONS=    1608
 SOLVING FOR ZETA FOR LAYER     2 ZONE     2

     227 UPPER PART EQS.       232 LOWER PART EQS.    BAND WIDTH + 1 =   22
 STRESS PERIOD=  1 TIMESTEP=216 LAYER=  2 ZONE=  2 ACTIVE CELLS=  459 NUMBER OF EQUATIONS=     459

 SOLVING FOR HEAD 

 NO OUTPUT CONTROL FOR STRESS PERIOD    1   TIME STEP  217
 SOLVING FOR ZETA FOR LAYER     1 ZONE     2

     792 UPPER PART EQS.       780 LOWER PART EQS.    BAND WIDTH + 1 =   35
 STRESS PERIOD=  1 TIMESTEP=217 LAYER=  1 ZONE=  2 ACTIVE CELLS= 1572 NUMBER OF EQUATIONS=    1572
 SOLVING FOR ZETA FOR LAYER     2 ZONE     2

     229 UPPER PART EQS.       232 LOWER PART EQS.    BAND WIDTH + 1 =   22
 STRESS PERIOD=  1 TIMESTEP=217 LAYER=  2 ZONE=  2 ACTIVE CELLS=  461 NUMBER OF EQUATIONS=     461

 SOLVING FOR HEAD 

 NO OUTPUT CONTROL FOR STRESS PERIOD    1   TIME STEP  218
 SOLVING FOR ZETA FOR LAYER     1 ZONE     2

     776 UPPER PART EQS.       772 LOWER PART EQS.    BAND WIDTH + 1 =   33
 STRESS PERIOD=  1 TIMESTEP=218 LAYER=  1 ZONE=  2 ACTIVE CELLS= 1548 NUMBER OF EQUATIONS=    1548
 SOLVING FOR ZETA FOR LAYER     2 ZONE     2

     229 UPPER PART EQS.       232 LOWER PART EQS.    BAND WIDTH + 1 =   22
 STRESS PERIOD=  1 TIMESTEP=218 LAYER=  2 ZONE=  2 ACTIVE CELLS=  461 NUMBER OF EQUATIONS=     461

 SOLVING FOR HEAD 

 NO OUTPUT CONTROL FOR STRESS PERIOD    1   TIME STEP  219
 SOLVING FOR ZETA FOR LAYER     1 ZONE     2

     804 UPPER PART EQS.       814 LOWER PART EQS.    BAND WIDTH + 1 =   39
 STRESS PERIOD=  1 TIMESTEP=219 LAYER=  1 ZONE=  2 ACTIVE CELLS= 1618 NUMBER OF EQUATIONS=    1618
 SOLVING FOR ZETA FOR LAYER     2 ZONE     2

     241 UPPER PART EQS.       248 LOWER PART EQS.    BAND WIDTH + 1 =   22
 STRESS PERIOD=  1 TIMESTEP=219 LAYER=  2 ZONE=  2 ACTIVE CELLS=  489 NUMBER OF EQUATIONS=     489

 SOLVING FOR HEAD 

 NO OUTPUT CONTROL FOR STRESS PERIOD    1   TIME STEP  220
 SOLVING FOR ZETA FOR LAYER     1 ZONE     2

     768 UPPER PART EQS.       766 LOWER PART EQS.    BAND WIDTH + 1 =   35
 STRESS PERIOD=  1 TIMESTEP=220 LAYER=  1 ZONE=  2 ACTIVE CELLS= 1534 NUMBER OF EQUATIONS=    1534
 SOLVING FOR ZETA FOR LAYER     2 ZONE     2

     253 UPPER PART EQS.       256 LOWER PART EQS.    BAND WIDTH + 1 =   22
 STRESS PERIOD=  1 TIMESTEP=220 LAYER=  2 ZONE=  2 ACTIVE CELLS=  509 NUMBER OF EQUATIONS=     509

 SOLVING FOR HEAD 

 NO OUTPUT CONTROL FOR STRESS PERIOD    1   TIME STEP  221
 SOLVING FOR ZETA FOR LAYER     1 ZONE     2

     796 UPPER PART EQS.       776 LOWER PART EQS.    BAND WIDTH + 1 =   39
 STRESS PERIOD=  1 TIMESTEP=221 LAYER=  1 ZONE=  2 ACTIVE CELLS= 1572 NUMBER OF EQUATIONS=    1572
 SOLVING FOR ZETA FOR LAYER     2 ZONE     2

     253 UPPER PART EQS.       256 LOWER PART EQS.    BAND WIDTH + 1 =   22
 STRESS PERIOD=  1 TIMESTEP=221 LAYER=  2 ZONE=  2 ACTIVE CELLS=  509 NUMBER OF EQUATIONS=     509

 SOLVING FOR HEAD 

 NO OUTPUT CONTROL FOR STRESS PERIOD    1   TIME STEP  222
 SOLVING FOR ZETA FOR LAYER     1 ZONE     2

     772 UPPER PART EQS.       796 LOWER PART EQS.    BAND WIDTH + 1 =   45
 STRESS PERIOD=  1 TIMESTEP=222 LAYER=  1 ZONE=  2 ACTIVE CELLS= 1568 NUMBER OF EQUATIONS=    1568
 SOLVING FOR ZETA FOR LAYER     2 ZONE     2

     269 UPPER PART EQS.       256 LOWER PART EQS.    BAND WIDTH + 1 =   24
 STRESS PERIOD=  1 TIMESTEP=222 LAYER=  2 ZONE=  2 ACTIVE CELLS=  525 NUMBER OF EQUATIONS=     525

 SOLVING FOR HEAD 

 NO OUTPUT CONTROL FOR STRESS PERIOD    1   TIME STEP  223
 SOLVING FOR ZETA FOR LAYER     1 ZONE     2

     764 UPPER PART EQS.       756 LOWER PART EQS.    BAND WIDTH + 1 =   32
 STRESS PERIOD=  1 TIMESTEP=223 LAYER=  1 ZONE=  2 ACTIVE CELLS= 1520 NUMBER OF EQUATIONS=    1520
 SOLVING FOR ZETA FOR LAYER     2 ZONE     2

     269 UPPER PART EQS.       260 LOWER PART EQS.    BAND WIDTH + 1 =   24
 STRESS PERIOD=  1 TIMESTEP=223 LAYER=  2 ZONE=  2 ACTIVE CELLS=  529 NUMBER OF EQUATIONS=     529

 SOLVING FOR HEAD 

 NO OUTPUT CONTROL FOR STRESS PERIOD    1   TIME STEP  224
 SOLVING FOR ZETA FOR LAYER     1 ZONE     2

     788 UPPER PART EQS.       786 LOWER PART EQS.    BAND WIDTH + 1 =   32
 STRESS PERIOD=  1 TIMESTEP=224 LAYER=  1 ZONE=  2 ACTIVE CELLS= 1574 NUMBER OF EQUATIONS=    1574
 SOLVING FOR ZETA FOR LAYER     2 ZONE     2

     269 UPPER PART EQS.       268 LOWER PART EQS.    BAND WIDTH + 1 =   22
 STRESS PERIOD=  1 TIMESTEP=224 LAYER=  2 ZONE=  2 ACTIVE CELLS=  537 NUMBER OF EQUATIONS=     537

 SOLVING FOR HEAD 

 NO OUTPUT CONTROL FOR STRESS PERIOD    1   TIME STEP  225
 SOLVING FOR ZETA FOR LAYER     1 ZONE     2

     760 UPPER PART EQS.       760 LOWER PART EQS.    BAND WIDTH + 1 =   29
 STRESS PERIOD=  1 TIMESTEP=225 LAYER=  1 ZONE=  2 ACTIVE CELLS= 1520 NUMBER OF EQUATIONS=    1520
 SOLVING FOR ZETA FOR LAYER     2 ZONE     2

     269 UPPER PART EQS.       272 LOWER PART EQS.    BAND WIDTH + 1 =   22
 STRESS PERIOD=  1 TIMESTEP=225 LAYER=  2 ZONE=  2 ACTIVE CELLS=  541 NUMBER OF EQUATIONS=     541

 SOLVING FOR HEAD 

 NO OUTPUT CONTROL FOR STRESS PERIOD    1   TIME STEP  226
 SOLVING FOR ZETA FOR LAYER     1 ZONE     2

     780 UPPER PART EQS.       786 LOWER PART EQS.    BAND WIDTH + 1 =   33
 STRESS PERIOD=  1 TIMESTEP=226 LAYER=  1 ZONE=  2 ACTIVE CELLS= 1566 NUMBER OF EQUATIONS=    1566
 SOLVING FOR ZETA FOR LAYER     2 ZONE     2

     277 UPPER PART EQS.       280 LOWER PART EQS.    BAND WIDTH + 1 =   24
 STRESS PERIOD=  1 TIMESTEP=226 LAYER=  2 ZONE=  2 ACTIVE CELLS=  557 NUMBER OF EQUATIONS=     557

 SOLVING FOR HEAD 

 NO OUTPUT CONTROL FOR STRESS PERIOD    1   TIME STEP  227
 SOLVING FOR ZETA FOR LAYER     1 ZONE     2

     750 UPPER PART EQS.       738 LOWER PART EQS.    BAND WIDTH + 1 =   39
 STRESS PERIOD=  1 TIMESTEP=227 LAYER=  1 ZONE=  2 ACTIVE CELLS= 1488 NUMBER OF EQUATIONS=    1488
 SOLVING FOR ZETA FOR LAYER     2 ZONE     2

     277 UPPER PART EQS.       280 LOWER PART EQS.    BAND WIDTH + 1 =   24
 STRESS PERIOD=  1 TIMESTEP=227 LAYER=  2 ZONE=  2 ACTIVE CELLS=  557 NUMBER OF EQUATIONS=     557

 SOLVING FOR HEAD 

 NO OUTPUT CONTROL FOR STRESS PERIOD    1   TIME STEP  228
 SOLVING FOR ZETA FOR LAYER     1 ZONE     2

     788 UPPER PART EQS.       782 LOWER PART EQS.    BAND WIDTH + 1 =   33
 STRESS PERIOD=  1 TIMESTEP=228 LAYER=  1 ZONE=  2 ACTIVE CELLS= 1570 NUMBER OF EQUATIONS=    1570
 SOLVING FOR ZETA FOR LAYER     2 ZONE     2

     285 UPPER PART EQS.       288 LOWER PART EQS.    BAND WIDTH + 1 =   24
 STRESS PERIOD=  1 TIMESTEP=228 LAYER=  2 ZONE=  2 ACTIVE CELLS=  573 NUMBER OF EQUATIONS=     573

 SOLVING FOR HEAD 

 NO OUTPUT CONTROL FOR STRESS PERIOD    1   TIME STEP  229
 SOLVING FOR ZETA FOR LAYER     1 ZONE     2

     748 UPPER PART EQS.       728 LOWER PART EQS.    BAND WIDTH + 1 =   43
 STRESS PERIOD=  1 TIMESTEP=229 LAYER=  1 ZONE=  2 ACTIVE CELLS= 1476 NUMBER OF EQUATIONS=    1476
 SOLVING FOR ZETA FOR LAYER     2 ZONE     2

     289 UPPER PART EQS.       296 LOWER PART EQS.    BAND WIDTH + 1 =   24
 STRESS PERIOD=  1 TIMESTEP=229 LAYER=  2 ZONE=  2 ACTIVE CELLS=  585 NUMBER OF EQUATIONS=     585

 SOLVING FOR HEAD 

 NO OUTPUT CONTROL FOR STRESS PERIOD    1   TIME STEP  230
 SOLVING FOR ZETA FOR LAYER     1 ZONE     2

     778 UPPER PART EQS.       796 LOWER PART EQS.    BAND WIDTH + 1 =   43
 STRESS PERIOD=  1 TIMESTEP=230 LAYER=  1 ZONE=  2 ACTIVE CELLS= 1574 NUMBER OF EQUATIONS=    1574
 SOLVING FOR ZETA FOR LAYER     2 ZONE     2

     293 UPPER PART EQS.       300 LOWER PART EQS.    BAND WIDTH + 1 =   26
 STRESS PERIOD=  1 TIMESTEP=230 LAYER=  2 ZONE=  2 ACTIVE CELLS=  593 NUMBER OF EQUATIONS=     593

 SOLVING FOR HEAD 

 NO OUTPUT CONTROL FOR STRESS PERIOD    1   TIME STEP  231
 SOLVING FOR ZETA FOR LAYER     1 ZONE     2

     740 UPPER PART EQS.       726 LOWER PART EQS.    BAND WIDTH + 1 =   37
 STRESS PERIOD=  1 TIMESTEP=231 LAYER=  1 ZONE=  2 ACTIVE CELLS= 1466 NUMBER OF EQUATIONS=    1466
 SOLVING FOR ZETA FOR LAYER     2 ZONE     2

     301 UPPER PART EQS.       306 LOWER PART EQS.    BAND WIDTH + 1 =   22
 STRESS PERIOD=  1 TIMESTEP=231 LAYER=  2 ZONE=  2 ACTIVE CELLS=  607 NUMBER OF EQUATIONS=     607

 SOLVING FOR HEAD 

 NO OUTPUT CONTROL FOR STRESS PERIOD    1   TIME STEP  232
 SOLVING FOR ZETA FOR LAYER     1 ZONE     2

     762 UPPER PART EQS.       768 LOWER PART EQS.    BAND WIDTH + 1 =   32
 STRESS PERIOD=  1 TIMESTEP=232 LAYER=  1 ZONE=  2 ACTIVE CELLS= 1530 NUMBER OF EQUATIONS=    1530
 SOLVING FOR ZETA FOR LAYER     2 ZONE     2

     305 UPPER PART EQS.       308 LOWER PART EQS.    BAND WIDTH + 1 =   24
 STRESS PERIOD=  1 TIMESTEP=232 LAYER=  2 ZONE=  2 ACTIVE CELLS=  613 NUMBER OF EQUATIONS=     613

 SOLVING FOR HEAD 

 NO OUTPUT CONTROL FOR STRESS PERIOD    1   TIME STEP  233
 SOLVING FOR ZETA FOR LAYER     1 ZONE     2

     742 UPPER PART EQS.       732 LOWER PART EQS.    BAND WIDTH + 1 =   33
 STRESS PERIOD=  1 TIMESTEP=233 LAYER=  1 ZONE=  2 ACTIVE CELLS= 1474 NUMBER OF EQUATIONS=    1474
 SOLVING FOR ZETA FOR LAYER     2 ZONE     2

     311 UPPER PART EQS.       308 LOWER PART EQS.    BAND WIDTH + 1 =   24
 STRESS PERIOD=  1 TIMESTEP=233 LAYER=  2 ZONE=  2 ACTIVE CELLS=  619 NUMBER OF EQUATIONS=     619

 SOLVING FOR HEAD 

 NO OUTPUT CONTROL FOR STRESS PERIOD    1   TIME STEP  234
 SOLVING FOR ZETA FOR LAYER     1 ZONE     2

     762 UPPER PART EQS.       768 LOWER PART EQS.    BAND WIDTH + 1 =   29
 STRESS PERIOD=  1 TIMESTEP=234 LAYER=  1 ZONE=  2 ACTIVE CELLS= 1530 NUMBER OF EQUATIONS=    1530
 SOLVING FOR ZETA FOR LAYER     2 ZONE     2

     321 UPPER PART EQS.       308 LOWER PART EQS.    BAND WIDTH + 1 =   26
 STRESS PERIOD=  1 TIMESTEP=234 LAYER=  2 ZONE=  2 ACTIVE CELLS=  629 NUMBER OF EQUATIONS=     629

 SOLVING FOR HEAD 

 NO OUTPUT CONTROL FOR STRESS PERIOD    1   TIME STEP  235
 SOLVING FOR ZETA FOR LAYER     1 ZONE     2

     742 UPPER PART EQS.       720 LOWER PART EQS.    BAND WIDTH + 1 =   37
 STRESS PERIOD=  1 TIMESTEP=235 LAYER=  1 ZONE=  2 ACTIVE CELLS= 1462 NUMBER OF EQUATIONS=    1462
 SOLVING FOR ZETA FOR LAYER     2 ZONE     2

     321 UPPER PART EQS.       308 LOWER PART EQS.    BAND WIDTH + 1 =   26
 STRESS PERIOD=  1 TIMESTEP=235 LAYER=  2 ZONE=  2 ACTIVE CELLS=  629 NUMBER OF EQUATIONS=     629

 SOLVING FOR HEAD 

 NO OUTPUT CONTROL FOR STRESS PERIOD    1   TIME STEP  236
 SOLVING FOR ZETA FOR LAYER     1 ZONE     2

     758 UPPER PART EQS.       760 LOWER PART EQS.    BAND WIDTH + 1 =   33
 STRESS PERIOD=  1 TIMESTEP=236 LAYER=  1 ZONE=  2 ACTIVE CELLS= 1518 NUMBER OF EQUATIONS=    1518
 SOLVING FOR ZETA FOR LAYER     2 ZONE     2

     321 UPPER PART EQS.       316 LOWER PART EQS.    BAND WIDTH + 1 =   26
 STRESS PERIOD=  1 TIMESTEP=236 LAYER=  2 ZONE=  2 ACTIVE CELLS=  637 NUMBER OF EQUATIONS=     637

 SOLVING FOR HEAD 

 NO OUTPUT CONTROL FOR STRESS PERIOD    1   TIME STEP  237
 SOLVING FOR ZETA FOR LAYER     1 ZONE     2

     726 UPPER PART EQS.       720 LOWER PART EQS.    BAND WIDTH + 1 =   29
 STRESS PERIOD=  1 TIMESTEP=237 LAYER=  1 ZONE=  2 ACTIVE CELLS= 1446 NUMBER OF EQUATIONS=    1446
 SOLVING FOR ZETA FOR LAYER     2 ZONE     2

     321 UPPER PART EQS.       316 LOWER PART EQS.    BAND WIDTH + 1 =   26
 STRESS PERIOD=  1 TIMESTEP=237 LAYER=  2 ZONE=  2 ACTIVE CELLS=  637 NUMBER OF EQUATIONS=     637

 SOLVING FOR HEAD 

 NO OUTPUT CONTROL FOR STRESS PERIOD    1   TIME STEP  238
 SOLVING FOR ZETA FOR LAYER     1 ZONE     2

     744 UPPER PART EQS.       768 LOWER PART EQS.    BAND WIDTH + 1 =   43
 STRESS PERIOD=  1 TIMESTEP=238 LAYER=  1 ZONE=  2 ACTIVE CELLS= 1512 NUMBER OF EQUATIONS=    1512
 SOLVING FOR ZETA FOR LAYER     2 ZONE     2

     321 UPPER PART EQS.       320 LOWER PART EQS.    BAND WIDTH + 1 =   24
 STRESS PERIOD=  1 TIMESTEP=238 LAYER=  2 ZONE=  2 ACTIVE CELLS=  641 NUMBER OF EQUATIONS=     641

 SOLVING FOR HEAD 

 NO OUTPUT CONTROL FOR STRESS PERIOD    1   TIME STEP  239
 SOLVING FOR ZETA FOR LAYER     1 ZONE     2

     728 UPPER PART EQS.       712 LOWER PART EQS.    BAND WIDTH + 1 =   33
 STRESS PERIOD=  1 TIMESTEP=239 LAYER=  1 ZONE=  2 ACTIVE CELLS= 1440 NUMBER OF EQUATIONS=    1440
 SOLVING FOR ZETA FOR LAYER     2 ZONE     2

     321 UPPER PART EQS.       324 LOWER PART EQS.    BAND WIDTH + 1 =   24
 STRESS PERIOD=  1 TIMESTEP=239 LAYER=  2 ZONE=  2 ACTIVE CELLS=  645 NUMBER OF EQUATIONS=     645

 SOLVING FOR HEAD 

 NO OUTPUT CONTROL FOR STRESS PERIOD    1   TIME STEP  240
 SOLVING FOR ZETA FOR LAYER     1 ZONE     2

     740 UPPER PART EQS.       748 LOWER PART EQS.    BAND WIDTH + 1 =   33
 STRESS PERIOD=  1 TIMESTEP=240 LAYER=  1 ZONE=  2 ACTIVE CELLS= 1488 NUMBER OF EQUATIONS=    1488
 SOLVING FOR ZETA FOR LAYER     2 ZONE     2

     335 UPPER PART EQS.       340 LOWER PART EQS.    BAND WIDTH + 1 =   26
 STRESS PERIOD=  1 TIMESTEP=240 LAYER=  2 ZONE=  2 ACTIVE CELLS=  675 NUMBER OF EQUATIONS=     675

 SOLVING FOR HEAD 

 NO OUTPUT CONTROL FOR STRESS PERIOD    1   TIME STEP  241
 SOLVING FOR ZETA FOR LAYER     1 ZONE     2

     718 UPPER PART EQS.       708 LOWER PART EQS.    BAND WIDTH + 1 =   33
 STRESS PERIOD=  1 TIMESTEP=241 LAYER=  1 ZONE=  2 ACTIVE CELLS= 1426 NUMBER OF EQUATIONS=    1426
 SOLVING FOR ZETA FOR LAYER     2 ZONE     2

     341 UPPER PART EQS.       344 LOWER PART EQS.    BAND WIDTH + 1 =   26
 STRESS PERIOD=  1 TIMESTEP=241 LAYER=  2 ZONE=  2 ACTIVE CELLS=  685 NUMBER OF EQUATIONS=     685

 SOLVING FOR HEAD 

 NO OUTPUT CONTROL FOR STRESS PERIOD    1   TIME STEP  242
 SOLVING FOR ZETA FOR LAYER     1 ZONE     2

     746 UPPER PART EQS.       756 LOWER PART EQS.    BAND WIDTH + 1 =   37
 STRESS PERIOD=  1 TIMESTEP=242 LAYER=  1 ZONE=  2 ACTIVE CELLS= 1502 NUMBER OF EQUATIONS=    1502
 SOLVING FOR ZETA FOR LAYER     2 ZONE     2

     341 UPPER PART EQS.       348 LOWER PART EQS.    BAND WIDTH + 1 =   26
 STRESS PERIOD=  1 TIMESTEP=242 LAYER=  2 ZONE=  2 ACTIVE CELLS=  689 NUMBER OF EQUATIONS=     689

 SOLVING FOR HEAD 

 NO OUTPUT CONTROL FOR STRESS PERIOD    1   TIME STEP  243
 SOLVING FOR ZETA FOR LAYER     1 ZONE     2

     718 UPPER PART EQS.       708 LOWER PART EQS.    BAND WIDTH + 1 =   33
 STRESS PERIOD=  1 TIMESTEP=243 LAYER=  1 ZONE=  2 ACTIVE CELLS= 1426 NUMBER OF EQUATIONS=    1426
 SOLVING FOR ZETA FOR LAYER     2 ZONE     2

     347 UPPER PART EQS.       348 LOWER PART EQS.    BAND WIDTH + 1 =   26
 STRESS PERIOD=  1 TIMESTEP=243 LAYER=  2 ZONE=  2 ACTIVE CELLS=  695 NUMBER OF EQUATIONS=     695

 SOLVING FOR HEAD 

 NO OUTPUT CONTROL FOR STRESS PERIOD    1   TIME STEP  244
 SOLVING FOR ZETA FOR LAYER     1 ZONE     2

     734 UPPER PART EQS.       752 LOWER PART EQS.    BAND WIDTH + 1 =   41
 STRESS PERIOD=  1 TIMESTEP=244 LAYER=  1 ZONE=  2 ACTIVE CELLS= 1486 NUMBER OF EQUATIONS=    1486
 SOLVING FOR ZETA FOR LAYER     2 ZONE     2

     349 UPPER PART EQS.       348 LOWER PART EQS.    BAND WIDTH + 1 =   26
 STRESS PERIOD=  1 TIMESTEP=244 LAYER=  2 ZONE=  2 ACTIVE CELLS=  697 NUMBER OF EQUATIONS=     697

 SOLVING FOR HEAD 

 NO OUTPUT CONTROL FOR STRESS PERIOD    1   TIME STEP  245
 SOLVING FOR ZETA FOR LAYER     1 ZONE     2

     726 UPPER PART EQS.       700 LOWER PART EQS.    BAND WIDTH + 1 =   45
 STRESS PERIOD=  1 TIMESTEP=245 LAYER=  1 ZONE=  2 ACTIVE CELLS= 1426 NUMBER OF EQUATIONS=    1426
 SOLVING FOR ZETA FOR LAYER     2 ZONE     2

     349 UPPER PART EQS.       356 LOWER PART EQS.    BAND WIDTH + 1 =   28
 STRESS PERIOD=  1 TIMESTEP=245 LAYER=  2 ZONE=  2 ACTIVE CELLS=  705 NUMBER OF EQUATIONS=     705

 SOLVING FOR HEAD 

 NO OUTPUT CONTROL FOR STRESS PERIOD    1   TIME STEP  246
 SOLVING FOR ZETA FOR LAYER     1 ZONE     2

     730 UPPER PART EQS.       724 LOWER PART EQS.    BAND WIDTH + 1 =   33
 STRESS PERIOD=  1 TIMESTEP=246 LAYER=  1 ZONE=  2 ACTIVE CELLS= 1454 NUMBER OF EQUATIONS=    1454
 SOLVING FOR ZETA FOR LAYER     2 ZONE     2

     349 UPPER PART EQS.       362 LOWER PART EQS.    BAND WIDTH + 1 =   28
 STRESS PERIOD=  1 TIMESTEP=246 LAYER=  2 ZONE=  2 ACTIVE CELLS=  711 NUMBER OF EQUATIONS=     711

 SOLVING FOR HEAD 

 NO OUTPUT CONTROL FOR STRESS PERIOD    1   TIME STEP  247
 SOLVING FOR ZETA FOR LAYER     1 ZONE     2

     716 UPPER PART EQS.       696 LOWER PART EQS.    BAND WIDTH + 1 =   39
 STRESS PERIOD=  1 TIMESTEP=247 LAYER=  1 ZONE=  2 ACTIVE CELLS= 1412 NUMBER OF EQUATIONS=    1412
 SOLVING FOR ZETA FOR LAYER     2 ZONE     2

     349 UPPER PART EQS.       364 LOWER PART EQS.    BAND WIDTH + 1 =   28
 STRESS PERIOD=  1 TIMESTEP=247 LAYER=  2 ZONE=  2 ACTIVE CELLS=  713 NUMBER OF EQUATIONS=     713

 SOLVING FOR HEAD 

 NO OUTPUT CONTROL FOR STRESS PERIOD    1   TIME STEP  248
 SOLVING FOR ZETA FOR LAYER     1 ZONE     2

     726 UPPER PART EQS.       735 LOWER PART EQS.    BAND WIDTH + 1 =   32
 STRESS PERIOD=  1 TIMESTEP=248 LAYER=  1 ZONE=  2 ACTIVE CELLS= 1461 NUMBER OF EQUATIONS=    1461
 SOLVING FOR ZETA FOR LAYER     2 ZONE     2

     357 UPPER PART EQS.       364 LOWER PART EQS.    BAND WIDTH + 1 =   24
 STRESS PERIOD=  1 TIMESTEP=248 LAYER=  2 ZONE=  2 ACTIVE CELLS=  721 NUMBER OF EQUATIONS=     721

 SOLVING FOR HEAD 

 NO OUTPUT CONTROL FOR STRESS PERIOD    1   TIME STEP  249
 SOLVING FOR ZETA FOR LAYER     1 ZONE     2

     714 UPPER PART EQS.       701 LOWER PART EQS.    BAND WIDTH + 1 =   35
 STRESS PERIOD=  1 TIMESTEP=249 LAYER=  1 ZONE=  2 ACTIVE CELLS= 1415 NUMBER OF EQUATIONS=    1415
 SOLVING FOR ZETA FOR LAYER     2 ZONE     2

     369 UPPER PART EQS.       364 LOWER PART EQS.    BAND WIDTH + 1 =   26
 STRESS PERIOD=  1 TIMESTEP=249 LAYER=  2 ZONE=  2 ACTIVE CELLS=  733 NUMBER OF EQUATIONS=     733

 SOLVING FOR HEAD 

 NO OUTPUT CONTROL FOR STRESS PERIOD    1   TIME STEP  250
 SOLVING FOR ZETA FOR LAYER     1 ZONE     2

     729 UPPER PART EQS.       726 LOWER PART EQS.    BAND WIDTH + 1 =   33
 STRESS PERIOD=  1 TIMESTEP=250 LAYER=  1 ZONE=  2 ACTIVE CELLS= 1455 NUMBER OF EQUATIONS=    1455
 SOLVING FOR ZETA FOR LAYER     2 ZONE     2

     369 UPPER PART EQS.       364 LOWER PART EQS.    BAND WIDTH + 1 =   26
 STRESS PERIOD=  1 TIMESTEP=250 LAYER=  2 ZONE=  2 ACTIVE CELLS=  733 NUMBER OF EQUATIONS=     733

 SOLVING FOR HEAD 

 NO OUTPUT CONTROL FOR STRESS PERIOD    1   TIME STEP  251
 SOLVING FOR ZETA FOR LAYER     1 ZONE     2

     708 UPPER PART EQS.       696 LOWER PART EQS.    BAND WIDTH + 1 =   32
 STRESS PERIOD=  1 TIMESTEP=251 LAYER=  1 ZONE=  2 ACTIVE CELLS= 1404 NUMBER OF EQUATIONS=    1404
 SOLVING FOR ZETA FOR LAYER     2 ZONE     2

     369 UPPER PART EQS.       364 LOWER PART EQS.    BAND WIDTH + 1 =   26
 STRESS PERIOD=  1 TIMESTEP=251 LAYER=  2 ZONE=  2 ACTIVE CELLS=  733 NUMBER OF EQUATIONS=     733

 SOLVING FOR HEAD 

 NO OUTPUT CONTROL FOR STRESS PERIOD    1   TIME STEP  252
 SOLVING FOR ZETA FOR LAYER     1 ZONE     2

     727 UPPER PART EQS.       727 LOWER PART EQS.    BAND WIDTH + 1 =   28
 STRESS PERIOD=  1 TIMESTEP=252 LAYER=  1 ZONE=  2 ACTIVE CELLS= 1454 NUMBER OF EQUATIONS=    1454
 SOLVING FOR ZETA FOR LAYER     2 ZONE     2

     377 UPPER PART EQS.       364 LOWER PART EQS.    BAND WIDTH + 1 =   28
 STRESS PERIOD=  1 TIMESTEP=252 LAYER=  2 ZONE=  2 ACTIVE CELLS=  741 NUMBER OF EQUATIONS=     741

 SOLVING FOR HEAD 

 NO OUTPUT CONTROL FOR STRESS PERIOD    1   TIME STEP  253
 SOLVING FOR ZETA FOR LAYER     1 ZONE     2

     700 UPPER PART EQS.       696 LOWER PART EQS.    BAND WIDTH + 1 =   27
 STRESS PERIOD=  1 TIMESTEP=253 LAYER=  1 ZONE=  2 ACTIVE CELLS= 1396 NUMBER OF EQUATIONS=    1396
 SOLVING FOR ZETA FOR LAYER     2 ZONE     2

     377 UPPER PART EQS.       364 LOWER PART EQS.    BAND WIDTH + 1 =   28
 STRESS PERIOD=  1 TIMESTEP=253 LAYER=  2 ZONE=  2 ACTIVE CELLS=  741 NUMBER OF EQUATIONS=     741

 SOLVING FOR HEAD 

 NO OUTPUT CONTROL FOR STRESS PERIOD    1   TIME STEP  254
 SOLVING FOR ZETA FOR LAYER     1 ZONE     2

     722 UPPER PART EQS.       719 LOWER PART EQS.    BAND WIDTH + 1 =   30
 STRESS PERIOD=  1 TIMESTEP=254 LAYER=  1 ZONE=  2 ACTIVE CELLS= 1441 NUMBER OF EQUATIONS=    1441
 SOLVING FOR ZETA FOR LAYER     2 ZONE     2

     377 UPPER PART EQS.       370 LOWER PART EQS.    BAND WIDTH + 1 =   28
 STRESS PERIOD=  1 TIMESTEP=254 LAYER=  2 ZONE=  2 ACTIVE CELLS=  747 NUMBER OF EQUATIONS=     747

 SOLVING FOR HEAD 

 NO OUTPUT CONTROL FOR STRESS PERIOD    1   TIME STEP  255
 SOLVING FOR ZETA FOR LAYER     1 ZONE     2

     703 UPPER PART EQS.       698 LOWER PART EQS.    BAND WIDTH + 1 =   28
 STRESS PERIOD=  1 TIMESTEP=255 LAYER=  1 ZONE=  2 ACTIVE CELLS= 1401 NUMBER OF EQUATIONS=    1401
 SOLVING FOR ZETA FOR LAYER     2 ZONE     2

     385 UPPER PART EQS.       380 LOWER PART EQS.    BAND WIDTH + 1 =   28
 STRESS PERIOD=  1 TIMESTEP=255 LAYER=  2 ZONE=  2 ACTIVE CELLS=  765 NUMBER OF EQUATIONS=     765

 SOLVING FOR HEAD 

 NO OUTPUT CONTROL FOR STRESS PERIOD    1   TIME STEP  256
 SOLVING FOR ZETA FOR LAYER     1 ZONE     2

     716 UPPER PART EQS.       722 LOWER PART EQS.    BAND WIDTH + 1 =   28
 STRESS PERIOD=  1 TIMESTEP=256 LAYER=  1 ZONE=  2 ACTIVE CELLS= 1438 NUMBER OF EQUATIONS=    1438
 SOLVING FOR ZETA FOR LAYER     2 ZONE     2

     385 UPPER PART EQS.       384 LOWER PART EQS.    BAND WIDTH + 1 =   28
 STRESS PERIOD=  1 TIMESTEP=256 LAYER=  2 ZONE=  2 ACTIVE CELLS=  769 NUMBER OF EQUATIONS=     769

 SOLVING FOR HEAD 

 NO OUTPUT CONTROL FOR STRESS PERIOD    1   TIME STEP  257
 SOLVING FOR ZETA FOR LAYER     1 ZONE     2

     696 UPPER PART EQS.       690 LOWER PART EQS.    BAND WIDTH + 1 =   26
 STRESS PERIOD=  1 TIMESTEP=257 LAYER=  1 ZONE=  2 ACTIVE CELLS= 1386 NUMBER OF EQUATIONS=    1386
 SOLVING FOR ZETA FOR LAYER     2 ZONE     2

     391 UPPER PART EQS.       384 LOWER PART EQS.    BAND WIDTH + 1 =   28
 STRESS PERIOD=  1 TIMESTEP=257 LAYER=  2 ZONE=  2 ACTIVE CELLS=  775 NUMBER OF EQUATIONS=     775

 SOLVING FOR HEAD 

 NO OUTPUT CONTROL FOR STRESS PERIOD    1   TIME STEP  258
 SOLVING FOR ZETA FOR LAYER     1 ZONE     2

     719 UPPER PART EQS.       730 LOWER PART EQS.    BAND WIDTH + 1 =   32
 STRESS PERIOD=  1 TIMESTEP=258 LAYER=  1 ZONE=  2 ACTIVE CELLS= 1449 NUMBER OF EQUATIONS=    1449
 SOLVING FOR ZETA FOR LAYER     2 ZONE     2

     393 UPPER PART EQS.       384 LOWER PART EQS.    BAND WIDTH + 1 =   28
 STRESS PERIOD=  1 TIMESTEP=258 LAYER=  2 ZONE=  2 ACTIVE CELLS=  777 NUMBER OF EQUATIONS=     777

 SOLVING FOR HEAD 

 NO OUTPUT CONTROL FOR STRESS PERIOD    1   TIME STEP  259
 SOLVING FOR ZETA FOR LAYER     1 ZONE     2

     692 UPPER PART EQS.       679 LOWER PART EQS.    BAND WIDTH + 1 =   35
 STRESS PERIOD=  1 TIMESTEP=259 LAYER=  1 ZONE=  2 ACTIVE CELLS= 1371 NUMBER OF EQUATIONS=    1371
 SOLVING FOR ZETA FOR LAYER     2 ZONE     2

     393 UPPER PART EQS.       394 LOWER PART EQS.    BAND WIDTH + 1 =   26
 STRESS PERIOD=  1 TIMESTEP=259 LAYER=  2 ZONE=  2 ACTIVE CELLS=  787 NUMBER OF EQUATIONS=     787

 SOLVING FOR HEAD 

 NO OUTPUT CONTROL FOR STRESS PERIOD    1   TIME STEP  260
 SOLVING FOR ZETA FOR LAYER     1 ZONE     2

     714 UPPER PART EQS.       717 LOWER PART EQS.    BAND WIDTH + 1 =   27
 STRESS PERIOD=  1 TIMESTEP=260 LAYER=  1 ZONE=  2 ACTIVE CELLS= 1431 NUMBER OF EQUATIONS=    1431
 SOLVING FOR ZETA FOR LAYER     2 ZONE     2

     401 UPPER PART EQS.       400 LOWER PART EQS.    BAND WIDTH + 1 =   26
 STRESS PERIOD=  1 TIMESTEP=260 LAYER=  2 ZONE=  2 ACTIVE CELLS=  801 NUMBER OF EQUATIONS=     801

 SOLVING FOR HEAD 

 NO OUTPUT CONTROL FOR STRESS PERIOD    1   TIME STEP  261
 SOLVING FOR ZETA FOR LAYER     1 ZONE     2

     695 UPPER PART EQS.       681 LOWER PART EQS.    BAND WIDTH + 1 =   37
 STRESS PERIOD=  1 TIMESTEP=261 LAYER=  1 ZONE=  2 ACTIVE CELLS= 1376 NUMBER OF EQUATIONS=    1376
 SOLVING FOR ZETA FOR LAYER     2 ZONE     2

     401 UPPER PART EQS.       408 LOWER PART EQS.    BAND WIDTH + 1 =   28
 STRESS PERIOD=  1 TIMESTEP=261 LAYER=  2 ZONE=  2 ACTIVE CELLS=  809 NUMBER OF EQUATIONS=     809

 SOLVING FOR HEAD 

 NO OUTPUT CONTROL FOR STRESS PERIOD    1   TIME STEP  262
 SOLVING FOR ZETA FOR LAYER     1 ZONE     2

     708 UPPER PART EQS.       715 LOWER PART EQS.    BAND WIDTH + 1 =   29
 STRESS PERIOD=  1 TIMESTEP=262 LAYER=  1 ZONE=  2 ACTIVE CELLS= 1423 NUMBER OF EQUATIONS=    1423
 SOLVING FOR ZETA FOR LAYER     2 ZONE     2

     405 UPPER PART EQS.       408 LOWER PART EQS.    BAND WIDTH + 1 =   28
 STRESS PERIOD=  1 TIMESTEP=262 LAYER=  2 ZONE=  2 ACTIVE CELLS=  813 NUMBER OF EQUATIONS=     813

 SOLVING FOR HEAD 

 NO OUTPUT CONTROL FOR STRESS PERIOD    1   TIME STEP  263
 SOLVING FOR ZETA FOR LAYER     1 ZONE     2

     688 UPPER PART EQS.       681 LOWER PART EQS.    BAND WIDTH + 1 =   31
 STRESS PERIOD=  1 TIMESTEP=263 LAYER=  1 ZONE=  2 ACTIVE CELLS= 1369 NUMBER OF EQUATIONS=    1369
 SOLVING FOR ZETA FOR LAYER     2 ZONE     2

     409 UPPER PART EQS.       408 LOWER PART EQS.    BAND WIDTH + 1 =   28
 STRESS PERIOD=  1 TIMESTEP=263 LAYER=  2 ZONE=  2 ACTIVE CELLS=  817 NUMBER OF EQUATIONS=     817

 SOLVING FOR HEAD 

 NO OUTPUT CONTROL FOR STRESS PERIOD    1   TIME STEP  264
 SOLVING FOR ZETA FOR LAYER     1 ZONE     2

     713 UPPER PART EQS.       713 LOWER PART EQS.    BAND WIDTH + 1 =   27
 STRESS PERIOD=  1 TIMESTEP=264 LAYER=  1 ZONE=  2 ACTIVE CELLS= 1426 NUMBER OF EQUATIONS=    1426
 SOLVING FOR ZETA FOR LAYER     2 ZONE     2

     409 UPPER PART EQS.       408 LOWER PART EQS.    BAND WIDTH + 1 =   28
 STRESS PERIOD=  1 TIMESTEP=264 LAYER=  2 ZONE=  2 ACTIVE CELLS=  817 NUMBER OF EQUATIONS=     817

 SOLVING FOR HEAD 

 NO OUTPUT CONTROL FOR STRESS PERIOD    1   TIME STEP  265
 SOLVING FOR ZETA FOR LAYER     1 ZONE     2

     681 UPPER PART EQS.       675 LOWER PART EQS.    BAND WIDTH + 1 =   32
 STRESS PERIOD=  1 TIMESTEP=265 LAYER=  1 ZONE=  2 ACTIVE CELLS= 1356 NUMBER OF EQUATIONS=    1356
 SOLVING FOR ZETA FOR LAYER     2 ZONE     2

     409 UPPER PART EQS.       408 LOWER PART EQS.    BAND WIDTH + 1 =   28
 STRESS PERIOD=  1 TIMESTEP=265 LAYER=  2 ZONE=  2 ACTIVE CELLS=  817 NUMBER OF EQUATIONS=     817

 SOLVING FOR HEAD 

 NO OUTPUT CONTROL FOR STRESS PERIOD    1   TIME STEP  266
 SOLVING FOR ZETA FOR LAYER     1 ZONE     2

     703 UPPER PART EQS.       713 LOWER PART EQS.    BAND WIDTH + 1 =   34
 STRESS PERIOD=  1 TIMESTEP=266 LAYER=  1 ZONE=  2 ACTIVE CELLS= 1416 NUMBER OF EQUATIONS=    1416
 SOLVING FOR ZETA FOR LAYER     2 ZONE     2

     409 UPPER PART EQS.       416 LOWER PART EQS.    BAND WIDTH + 1 =   28
 STRESS PERIOD=  1 TIMESTEP=266 LAYER=  2 ZONE=  2 ACTIVE CELLS=  825 NUMBER OF EQUATIONS=     825

 SOLVING FOR HEAD 

 NO OUTPUT CONTROL FOR STRESS PERIOD    1   TIME STEP  267
 SOLVING FOR ZETA FOR LAYER     1 ZONE     2

     682 UPPER PART EQS.       679 LOWER PART EQS.    BAND WIDTH + 1 =   26
 STRESS PERIOD=  1 TIMESTEP=267 LAYER=  1 ZONE=  2 ACTIVE CELLS= 1361 NUMBER OF EQUATIONS=    1361
 SOLVING FOR ZETA FOR LAYER     2 ZONE     2

     409 UPPER PART EQS.       416 LOWER PART EQS.    BAND WIDTH + 1 =   28
 STRESS PERIOD=  1 TIMESTEP=267 LAYER=  2 ZONE=  2 ACTIVE CELLS=  825 NUMBER OF EQUATIONS=     825

 SOLVING FOR HEAD 

 NO OUTPUT CONTROL FOR STRESS PERIOD    1   TIME STEP  268
 SOLVING FOR ZETA FOR LAYER     1 ZONE     2

     701 UPPER PART EQS.       709 LOWER PART EQS.    BAND WIDTH + 1 =   30
 STRESS PERIOD=  1 TIMESTEP=268 LAYER=  1 ZONE=  2 ACTIVE CELLS= 1410 NUMBER OF EQUATIONS=    1410
 SOLVING FOR ZETA FOR LAYER     2 ZONE     2

     409 UPPER PART EQS.       424 LOWER PART EQS.    BAND WIDTH + 1 =   30
 STRESS PERIOD=  1 TIMESTEP=268 LAYER=  2 ZONE=  2 ACTIVE CELLS=  833 NUMBER OF EQUATIONS=     833

 SOLVING FOR HEAD 

 NO OUTPUT CONTROL FOR STRESS PERIOD    1   TIME STEP  269
 SOLVING FOR ZETA FOR LAYER     1 ZONE     2

     673 UPPER PART EQS.       679 LOWER PART EQS.    BAND WIDTH + 1 =   34
 STRESS PERIOD=  1 TIMESTEP=269 LAYER=  1 ZONE=  2 ACTIVE CELLS= 1352 NUMBER OF EQUATIONS=    1352
 SOLVING FOR ZETA FOR LAYER     2 ZONE     2

     409 UPPER PART EQS.       424 LOWER PART EQS.    BAND WIDTH + 1 =   30
 STRESS PERIOD=  1 TIMESTEP=269 LAYER=  2 ZONE=  2 ACTIVE CELLS=  833 NUMBER OF EQUATIONS=     833

 SOLVING FOR HEAD 

 NO OUTPUT CONTROL FOR STRESS PERIOD    1   TIME STEP  270
 SOLVING FOR ZETA FOR LAYER     1 ZONE     2

     701 UPPER PART EQS.       709 LOWER PART EQS.    BAND WIDTH + 1 =   33
 STRESS PERIOD=  1 TIMESTEP=270 LAYER=  1 ZONE=  2 ACTIVE CELLS= 1410 NUMBER OF EQUATIONS=    1410
 SOLVING FOR ZETA FOR LAYER     2 ZONE     2

     409 UPPER PART EQS.       424 LOWER PART EQS.    BAND WIDTH + 1 =   30
 STRESS PERIOD=  1 TIMESTEP=270 LAYER=  2 ZONE=  2 ACTIVE CELLS=  833 NUMBER OF EQUATIONS=     833

 SOLVING FOR HEAD 

 NO OUTPUT CONTROL FOR STRESS PERIOD    1   TIME STEP  271
 SOLVING FOR ZETA FOR LAYER     1 ZONE     2

     680 UPPER PART EQS.       679 LOWER PART EQS.    BAND WIDTH + 1 =   29
 STRESS PERIOD=  1 TIMESTEP=271 LAYER=  1 ZONE=  2 ACTIVE CELLS= 1359 NUMBER OF EQUATIONS=    1359
 SOLVING FOR ZETA FOR LAYER     2 ZONE     2

     409 UPPER PART EQS.       424 LOWER PART EQS.    BAND WIDTH + 1 =   30
 STRESS PERIOD=  1 TIMESTEP=271 LAYER=  2 ZONE=  2 ACTIVE CELLS=  833 NUMBER OF EQUATIONS=     833

 SOLVING FOR HEAD 

 NO OUTPUT CONTROL FOR STRESS PERIOD    1   TIME STEP  272
 SOLVING FOR ZETA FOR LAYER     1 ZONE     2

     696 UPPER PART EQS.       705 LOWER PART EQS.    BAND WIDTH + 1 =   33
 STRESS PERIOD=  1 TIMESTEP=272 LAYER=  1 ZONE=  2 ACTIVE CELLS= 1401 NUMBER OF EQUATIONS=    1401
 SOLVING FOR ZETA FOR LAYER     2 ZONE     2

     416 UPPER PART EQS.       424 LOWER PART EQS.    BAND WIDTH + 1 =   30
 STRESS PERIOD=  1 TIMESTEP=272 LAYER=  2 ZONE=  2 ACTIVE CELLS=  840 NUMBER OF EQUATIONS=     840

 SOLVING FOR HEAD 

 NO OUTPUT CONTROL FOR STRESS PERIOD    1   TIME STEP  273
 SOLVING FOR ZETA FOR LAYER     1 ZONE     2

     673 UPPER PART EQS.       667 LOWER PART EQS.    BAND WIDTH + 1 =   29
 STRESS PERIOD=  1 TIMESTEP=273 LAYER=  1 ZONE=  2 ACTIVE CELLS= 1340 NUMBER OF EQUATIONS=    1340
 SOLVING FOR ZETA FOR LAYER     2 ZONE     2

     421 UPPER PART EQS.       424 LOWER PART EQS.    BAND WIDTH + 1 =   28
 STRESS PERIOD=  1 TIMESTEP=273 LAYER=  2 ZONE=  2 ACTIVE CELLS=  845 NUMBER OF EQUATIONS=     845

 SOLVING FOR HEAD 

 NO OUTPUT CONTROL FOR STRESS PERIOD    1   TIME STEP  274
 SOLVING FOR ZETA FOR LAYER     1 ZONE     2

     700 UPPER PART EQS.       702 LOWER PART EQS.    BAND WIDTH + 1 =   26
 STRESS PERIOD=  1 TIMESTEP=274 LAYER=  1 ZONE=  2 ACTIVE CELLS= 1402 NUMBER OF EQUATIONS=    1402
 SOLVING FOR ZETA FOR LAYER     2 ZONE     2

     425 UPPER PART EQS.       424 LOWER PART EQS.    BAND WIDTH + 1 =   26
 STRESS PERIOD=  1 TIMESTEP=274 LAYER=  2 ZONE=  2 ACTIVE CELLS=  849 NUMBER OF EQUATIONS=     849

 SOLVING FOR HEAD 

 NO OUTPUT CONTROL FOR STRESS PERIOD    1   TIME STEP  275
 SOLVING FOR ZETA FOR LAYER     1 ZONE     2

     672 UPPER PART EQS.       668 LOWER PART EQS.    BAND WIDTH + 1 =   28
 STRESS PERIOD=  1 TIMESTEP=275 LAYER=  1 ZONE=  2 ACTIVE CELLS= 1340 NUMBER OF EQUATIONS=    1340
 SOLVING FOR ZETA FOR LAYER     2 ZONE     2

     429 UPPER PART EQS.       424 LOWER PART EQS.    BAND WIDTH + 1 =   28
 STRESS PERIOD=  1 TIMESTEP=275 LAYER=  2 ZONE=  2 ACTIVE CELLS=  853 NUMBER OF EQUATIONS=     853

 SOLVING FOR HEAD 

 NO OUTPUT CONTROL FOR STRESS PERIOD    1   TIME STEP  276
 SOLVING FOR ZETA FOR LAYER     1 ZONE     2

     705 UPPER PART EQS.       696 LOWER PART EQS.    BAND WIDTH + 1 =   34
 STRESS PERIOD=  1 TIMESTEP=276 LAYER=  1 ZONE=  2 ACTIVE CELLS= 1401 NUMBER OF EQUATIONS=    1401
 SOLVING FOR ZETA FOR LAYER     2 ZONE     2

     437 UPPER PART EQS.       432 LOWER PART EQS.    BAND WIDTH + 1 =   28
 STRESS PERIOD=  1 TIMESTEP=276 LAYER=  2 ZONE=  2 ACTIVE CELLS=  869 NUMBER OF EQUATIONS=     869

 SOLVING FOR HEAD 

 NO OUTPUT CONTROL FOR STRESS PERIOD    1   TIME STEP  277
 SOLVING FOR ZETA FOR LAYER     1 ZONE     2

     662 UPPER PART EQS.       670 LOWER PART EQS.    BAND WIDTH + 1 =   34
 STRESS PERIOD=  1 TIMESTEP=277 LAYER=  1 ZONE=  2 ACTIVE CELLS= 1332 NUMBER OF EQUATIONS=    1332
 SOLVING FOR ZETA FOR LAYER     2 ZONE     2

     441 UPPER PART EQS.       432 LOWER PART EQS.    BAND WIDTH + 1 =   28
 STRESS PERIOD=  1 TIMESTEP=277 LAYER=  2 ZONE=  2 ACTIVE CELLS=  873 NUMBER OF EQUATIONS=     873

 SOLVING FOR HEAD 

 NO OUTPUT CONTROL FOR STRESS PERIOD    1   TIME STEP  278
 SOLVING FOR ZETA FOR LAYER     1 ZONE     2

     702 UPPER PART EQS.       700 LOWER PART EQS.    BAND WIDTH + 1 =   28
 STRESS PERIOD=  1 TIMESTEP=278 LAYER=  1 ZONE=  2 ACTIVE CELLS= 1402 NUMBER OF EQUATIONS=    1402
 SOLVING FOR ZETA FOR LAYER     2 ZONE     2

     449 UPPER PART EQS.       436 LOWER PART EQS.    BAND WIDTH + 1 =   30
 STRESS PERIOD=  1 TIMESTEP=278 LAYER=  2 ZONE=  2 ACTIVE CELLS=  885 NUMBER OF EQUATIONS=     885

 SOLVING FOR HEAD 

 NO OUTPUT CONTROL FOR STRESS PERIOD    1   TIME STEP  279
 SOLVING FOR ZETA FOR LAYER     1 ZONE     2

     675 UPPER PART EQS.       664 LOWER PART EQS.    BAND WIDTH + 1 =   28
 STRESS PERIOD=  1 TIMESTEP=279 LAYER=  1 ZONE=  2 ACTIVE CELLS= 1339 NUMBER OF EQUATIONS=    1339
 SOLVING FOR ZETA FOR LAYER     2 ZONE     2

     449 UPPER PART EQS.       448 LOWER PART EQS.    BAND WIDTH + 1 =   30
 STRESS PERIOD=  1 TIMESTEP=279 LAYER=  2 ZONE=  2 ACTIVE CELLS=  897 NUMBER OF EQUATIONS=     897

 SOLVING FOR HEAD 

 NO OUTPUT CONTROL FOR STRESS PERIOD    1   TIME STEP  280
 SOLVING FOR ZETA FOR LAYER     1 ZONE     2

     693 UPPER PART EQS.       698 LOWER PART EQS.    BAND WIDTH + 1 =   27
 STRESS PERIOD=  1 TIMESTEP=280 LAYER=  1 ZONE=  2 ACTIVE CELLS= 1391 NUMBER OF EQUATIONS=    1391
 SOLVING FOR ZETA FOR LAYER     2 ZONE     2

     449 UPPER PART EQS.       448 LOWER PART EQS.    BAND WIDTH + 1 =   30
 STRESS PERIOD=  1 TIMESTEP=280 LAYER=  2 ZONE=  2 ACTIVE CELLS=  897 NUMBER OF EQUATIONS=     897

 SOLVING FOR HEAD 

 NO OUTPUT CONTROL FOR STRESS PERIOD    1   TIME STEP  281
 SOLVING FOR ZETA FOR LAYER     1 ZONE     2

     669 UPPER PART EQS.       666 LOWER PART EQS.    BAND WIDTH + 1 =   29
 STRESS PERIOD=  1 TIMESTEP=281 LAYER=  1 ZONE=  2 ACTIVE CELLS= 1335 NUMBER OF EQUATIONS=    1335
 SOLVING FOR ZETA FOR LAYER     2 ZONE     2

     455 UPPER PART EQS.       448 LOWER PART EQS.    BAND WIDTH + 1 =   30
 STRESS PERIOD=  1 TIMESTEP=281 LAYER=  2 ZONE=  2 ACTIVE CELLS=  903 NUMBER OF EQUATIONS=     903

 SOLVING FOR HEAD 

 NO OUTPUT CONTROL FOR STRESS PERIOD    1   TIME STEP  282
 SOLVING FOR ZETA FOR LAYER     1 ZONE     2

     698 UPPER PART EQS.       690 LOWER PART EQS.    BAND WIDTH + 1 =   33
 STRESS PERIOD=  1 TIMESTEP=282 LAYER=  1 ZONE=  2 ACTIVE CELLS= 1388 NUMBER OF EQUATIONS=    1388
 SOLVING FOR ZETA FOR LAYER     2 ZONE     2

     457 UPPER PART EQS.       448 LOWER PART EQS.    BAND WIDTH + 1 =   30
 STRESS PERIOD=  1 TIMESTEP=282 LAYER=  2 ZONE=  2 ACTIVE CELLS=  905 NUMBER OF EQUATIONS=     905

 SOLVING FOR HEAD 

 NO OUTPUT CONTROL FOR STRESS PERIOD    1   TIME STEP  283
 SOLVING FOR ZETA FOR LAYER     1 ZONE     2

     652 UPPER PART EQS.       664 LOWER PART EQS.    BAND WIDTH + 1 =   38
 STRESS PERIOD=  1 TIMESTEP=283 LAYER=  1 ZONE=  2 ACTIVE CELLS= 1316 NUMBER OF EQUATIONS=    1316
 SOLVING FOR ZETA FOR LAYER     2 ZONE     2

     457 UPPER PART EQS.       448 LOWER PART EQS.    BAND WIDTH + 1 =   30
 STRESS PERIOD=  1 TIMESTEP=283 LAYER=  2 ZONE=  2 ACTIVE CELLS=  905 NUMBER OF EQUATIONS=     905

 SOLVING FOR HEAD 

 NO OUTPUT CONTROL FOR STRESS PERIOD    1   TIME STEP  284
 SOLVING FOR ZETA FOR LAYER     1 ZONE     2

     701 UPPER PART EQS.       688 LOWER PART EQS.    BAND WIDTH + 1 =   35
 STRESS PERIOD=  1 TIMESTEP=284 LAYER=  1 ZONE=  2 ACTIVE CELLS= 1389 NUMBER OF EQUATIONS=    1389
 SOLVING FOR ZETA FOR LAYER     2 ZONE     2

     457 UPPER PART EQS.       448 LOWER PART EQS.    BAND WIDTH + 1 =   30
 STRESS PERIOD=  1 TIMESTEP=284 LAYER=  2 ZONE=  2 ACTIVE CELLS=  905 NUMBER OF EQUATIONS=     905

 SOLVING FOR HEAD 

 NO OUTPUT CONTROL FOR STRESS PERIOD    1   TIME STEP  285
 SOLVING FOR ZETA FOR LAYER     1 ZONE     2

     662 UPPER PART EQS.       654 LOWER PART EQS.    BAND WIDTH + 1 =   29
 STRESS PERIOD=  1 TIMESTEP=285 LAYER=  1 ZONE=  2 ACTIVE CELLS= 1316 NUMBER OF EQUATIONS=    1316
 SOLVING FOR ZETA FOR LAYER     2 ZONE     2

     457 UPPER PART EQS.       456 LOWER PART EQS.    BAND WIDTH + 1 =   30
 STRESS PERIOD=  1 TIMESTEP=285 LAYER=  2 ZONE=  2 ACTIVE CELLS=  913 NUMBER OF EQUATIONS=     913

 SOLVING FOR HEAD 

 NO OUTPUT CONTROL FOR STRESS PERIOD    1   TIME STEP  286
 SOLVING FOR ZETA FOR LAYER     1 ZONE     2

     680 UPPER PART EQS.       690 LOWER PART EQS.    BAND WIDTH + 1 =   32
 STRESS PERIOD=  1 TIMESTEP=286 LAYER=  1 ZONE=  2 ACTIVE CELLS= 1370 NUMBER OF EQUATIONS=    1370
 SOLVING FOR ZETA FOR LAYER     2 ZONE     2

     457 UPPER PART EQS.       456 LOWER PART EQS.    BAND WIDTH + 1 =   30
 STRESS PERIOD=  1 TIMESTEP=286 LAYER=  2 ZONE=  2 ACTIVE CELLS=  913 NUMBER OF EQUATIONS=     913

 SOLVING FOR HEAD 

 NO OUTPUT CONTROL FOR STRESS PERIOD    1   TIME STEP  287
 SOLVING FOR ZETA FOR LAYER     1 ZONE     2

     668 UPPER PART EQS.       654 LOWER PART EQS.    BAND WIDTH + 1 =   31
 STRESS PERIOD=  1 TIMESTEP=287 LAYER=  1 ZONE=  2 ACTIVE CELLS= 1322 NUMBER OF EQUATIONS=    1322
 SOLVING FOR ZETA FOR LAYER     2 ZONE     2

     457 UPPER PART EQS.       456 LOWER PART EQS.    BAND WIDTH + 1 =   30
 STRESS PERIOD=  1 TIMESTEP=287 LAYER=  2 ZONE=  2 ACTIVE CELLS=  913 NUMBER OF EQUATIONS=     913

 SOLVING FOR HEAD 

 NO OUTPUT CONTROL FOR STRESS PERIOD    1   TIME STEP  288
 SOLVING FOR ZETA FOR LAYER     1 ZONE     2

     687 UPPER PART EQS.       686 LOWER PART EQS.    BAND WIDTH + 1 =   27
 STRESS PERIOD=  1 TIMESTEP=288 LAYER=  1 ZONE=  2 ACTIVE CELLS= 1373 NUMBER OF EQUATIONS=    1373
 SOLVING FOR ZETA FOR LAYER     2 ZONE     2

     461 UPPER PART EQS.       456 LOWER PART EQS.    BAND WIDTH + 1 =   30
 STRESS PERIOD=  1 TIMESTEP=288 LAYER=  2 ZONE=  2 ACTIVE CELLS=  917 NUMBER OF EQUATIONS=     917

 SOLVING FOR HEAD 

 NO OUTPUT CONTROL FOR STRESS PERIOD    1   TIME STEP  289
 SOLVING FOR ZETA FOR LAYER     1 ZONE     2

     670 UPPER PART EQS.       642 LOWER PART EQS.    BAND WIDTH + 1 =   45
 STRESS PERIOD=  1 TIMESTEP=289 LAYER=  1 ZONE=  2 ACTIVE CELLS= 1312 NUMBER OF EQUATIONS=    1312
 SOLVING FOR ZETA FOR LAYER     2 ZONE     2

     470 UPPER PART EQS.       456 LOWER PART EQS.    BAND WIDTH + 1 =   32
 STRESS PERIOD=  1 TIMESTEP=289 LAYER=  2 ZONE=  2 ACTIVE CELLS=  926 NUMBER OF EQUATIONS=     926

 SOLVING FOR HEAD 

 NO OUTPUT CONTROL FOR STRESS PERIOD    1   TIME STEP  290
 SOLVING FOR ZETA FOR LAYER     1 ZONE     2

     679 UPPER PART EQS.       686 LOWER PART EQS.    BAND WIDTH + 1 =   29
 STRESS PERIOD=  1 TIMESTEP=290 LAYER=  1 ZONE=  2 ACTIVE CELLS= 1365 NUMBER OF EQUATIONS=    1365
 SOLVING FOR ZETA FOR LAYER     2 ZONE     2

     473 UPPER PART EQS.       460 LOWER PART EQS.    BAND WIDTH + 1 =   30
 STRESS PERIOD=  1 TIMESTEP=290 LAYER=  2 ZONE=  2 ACTIVE CELLS=  933 NUMBER OF EQUATIONS=     933

 SOLVING FOR HEAD 

 NO OUTPUT CONTROL FOR STRESS PERIOD    1   TIME STEP  291
 SOLVING FOR ZETA FOR LAYER     1 ZONE     2

     668 UPPER PART EQS.       654 LOWER PART EQS.    BAND WIDTH + 1 =   31
 STRESS PERIOD=  1 TIMESTEP=291 LAYER=  1 ZONE=  2 ACTIVE CELLS= 1322 NUMBER OF EQUATIONS=    1322
 SOLVING FOR ZETA FOR LAYER     2 ZONE     2

     473 UPPER PART EQS.       468 LOWER PART EQS.    BAND WIDTH + 1 =   28
 STRESS PERIOD=  1 TIMESTEP=291 LAYER=  2 ZONE=  2 ACTIVE CELLS=  941 NUMBER OF EQUATIONS=     941

 SOLVING FOR HEAD 

 NO OUTPUT CONTROL FOR STRESS PERIOD    1   TIME STEP  292
 SOLVING FOR ZETA FOR LAYER     1 ZONE     2

     675 UPPER PART EQS.       674 LOWER PART EQS.    BAND WIDTH + 1 =   27
 STRESS PERIOD=  1 TIMESTEP=292 LAYER=  1 ZONE=  2 ACTIVE CELLS= 1349 NUMBER OF EQUATIONS=    1349
 SOLVING FOR ZETA FOR LAYER     2 ZONE     2

     473 UPPER PART EQS.       468 LOWER PART EQS.    BAND WIDTH + 1 =   28
 STRESS PERIOD=  1 TIMESTEP=292 LAYER=  2 ZONE=  2 ACTIVE CELLS=  941 NUMBER OF EQUATIONS=     941

 SOLVING FOR HEAD 

 NO OUTPUT CONTROL FOR STRESS PERIOD    1   TIME STEP  293
 SOLVING FOR ZETA FOR LAYER     1 ZONE     2

     666 UPPER PART EQS.       654 LOWER PART EQS.    BAND WIDTH + 1 =   29
 STRESS PERIOD=  1 TIMESTEP=293 LAYER=  1 ZONE=  2 ACTIVE CELLS= 1320 NUMBER OF EQUATIONS=    1320
 SOLVING FOR ZETA FOR LAYER     2 ZONE     2

     473 UPPER PART EQS.       472 LOWER PART EQS.    BAND WIDTH + 1 =   30
 STRESS PERIOD=  1 TIMESTEP=293 LAYER=  2 ZONE=  2 ACTIVE CELLS=  945 NUMBER OF EQUATIONS=     945

 SOLVING FOR HEAD 

 NO OUTPUT CONTROL FOR STRESS PERIOD    1   TIME STEP  294
 SOLVING FOR ZETA FOR LAYER     1 ZONE     2

     679 UPPER PART EQS.       686 LOWER PART EQS.    BAND WIDTH + 1 =   29
 STRESS PERIOD=  1 TIMESTEP=294 LAYER=  1 ZONE=  2 ACTIVE CELLS= 1365 NUMBER OF EQUATIONS=    1365
 SOLVING FOR ZETA FOR LAYER     2 ZONE     2

     473 UPPER PART EQS.       472 LOWER PART EQS.    BAND WIDTH + 1 =   30
 STRESS PERIOD=  1 TIMESTEP=294 LAYER=  2 ZONE=  2 ACTIVE CELLS=  945 NUMBER OF EQUATIONS=     945

 SOLVING FOR HEAD 

 NO OUTPUT CONTROL FOR STRESS PERIOD    1   TIME STEP  295
 SOLVING FOR ZETA FOR LAYER     1 ZONE     2

     662 UPPER PART EQS.       638 LOWER PART EQS.    BAND WIDTH + 1 =   41
 STRESS PERIOD=  1 TIMESTEP=295 LAYER=  1 ZONE=  2 ACTIVE CELLS= 1300 NUMBER OF EQUATIONS=    1300
 SOLVING FOR ZETA FOR LAYER     2 ZONE     2

     473 UPPER PART EQS.       472 LOWER PART EQS.    BAND WIDTH + 1 =   30
 STRESS PERIOD=  1 TIMESTEP=295 LAYER=  2 ZONE=  2 ACTIVE CELLS=  945 NUMBER OF EQUATIONS=     945

 SOLVING FOR HEAD 

 NO OUTPUT CONTROL FOR STRESS PERIOD    1   TIME STEP  296
 SOLVING FOR ZETA FOR LAYER     1 ZONE     2

     679 UPPER PART EQS.       682 LOWER PART EQS.    BAND WIDTH + 1 =   27
 STRESS PERIOD=  1 TIMESTEP=296 LAYER=  1 ZONE=  2 ACTIVE CELLS= 1361 NUMBER OF EQUATIONS=    1361
 SOLVING FOR ZETA FOR LAYER     2 ZONE     2

     473 UPPER PART EQS.       472 LOWER PART EQS.    BAND WIDTH + 1 =   30
 STRESS PERIOD=  1 TIMESTEP=296 LAYER=  2 ZONE=  2 ACTIVE CELLS=  945 NUMBER OF EQUATIONS=     945

 SOLVING FOR HEAD 

 NO OUTPUT CONTROL FOR STRESS PERIOD    1   TIME STEP  297
 SOLVING FOR ZETA FOR LAYER     1 ZONE     2

     668 UPPER PART EQS.       650 LOWER PART EQS.    BAND WIDTH + 1 =   35
 STRESS PERIOD=  1 TIMESTEP=297 LAYER=  1 ZONE=  2 ACTIVE CELLS= 1318 NUMBER OF EQUATIONS=    1318
 SOLVING FOR ZETA FOR LAYER     2 ZONE     2

     473 UPPER PART EQS.       480 LOWER PART EQS.    BAND WIDTH + 1 =   30
 STRESS PERIOD=  1 TIMESTEP=297 LAYER=  2 ZONE=  2 ACTIVE CELLS=  953 NUMBER OF EQUATIONS=     953

 SOLVING FOR HEAD 

 NO OUTPUT CONTROL FOR STRESS PERIOD    1   TIME STEP  298
 SOLVING FOR ZETA FOR LAYER     1 ZONE     2

     673 UPPER PART EQS.       666 LOWER PART EQS.    BAND WIDTH + 1 =   35
 STRESS PERIOD=  1 TIMESTEP=298 LAYER=  1 ZONE=  2 ACTIVE CELLS= 1339 NUMBER OF EQUATIONS=    1339
 SOLVING FOR ZETA FOR LAYER     2 ZONE     2

     473 UPPER PART EQS.       480 LOWER PART EQS.    BAND WIDTH + 1 =   30
 STRESS PERIOD=  1 TIMESTEP=298 LAYER=  2 ZONE=  2 ACTIVE CELLS=  953 NUMBER OF EQUATIONS=     953

 SOLVING FOR HEAD 

 NO OUTPUT CONTROL FOR STRESS PERIOD    1   TIME STEP  299
 SOLVING FOR ZETA FOR LAYER     1 ZONE     2

     666 UPPER PART EQS.       650 LOWER PART EQS.    BAND WIDTH + 1 =   33
 STRESS PERIOD=  1 TIMESTEP=299 LAYER=  1 ZONE=  2 ACTIVE CELLS= 1316 NUMBER OF EQUATIONS=    1316
 SOLVING FOR ZETA FOR LAYER     2 ZONE     2

     473 UPPER PART EQS.       480 LOWER PART EQS.    BAND WIDTH + 1 =   30
 STRESS PERIOD=  1 TIMESTEP=299 LAYER=  2 ZONE=  2 ACTIVE CELLS=  953 NUMBER OF EQUATIONS=     953

 SOLVING FOR HEAD 

 NO OUTPUT CONTROL FOR STRESS PERIOD    1   TIME STEP  300
 SOLVING FOR ZETA FOR LAYER     1 ZONE     2

     673 UPPER PART EQS.       680 LOWER PART EQS.    BAND WIDTH + 1 =   31
 STRESS PERIOD=  1 TIMESTEP=300 LAYER=  1 ZONE=  2 ACTIVE CELLS= 1353 NUMBER OF EQUATIONS=    1353
 SOLVING FOR ZETA FOR LAYER     2 ZONE     2

     473 UPPER PART EQS.       480 LOWER PART EQS.    BAND WIDTH + 1 =   30
 STRESS PERIOD=  1 TIMESTEP=300 LAYER=  2 ZONE=  2 ACTIVE CELLS=  953 NUMBER OF EQUATIONS=     953

 SOLVING FOR HEAD 

 NO OUTPUT CONTROL FOR STRESS PERIOD    1   TIME STEP  301
 SOLVING FOR ZETA FOR LAYER     1 ZONE     2

     658 UPPER PART EQS.       632 LOWER PART EQS.    BAND WIDTH + 1 =   43
 STRESS PERIOD=  1 TIMESTEP=301 LAYER=  1 ZONE=  2 ACTIVE CELLS= 1290 NUMBER OF EQUATIONS=    1290
 SOLVING FOR ZETA FOR LAYER     2 ZONE     2

     473 UPPER PART EQS.       488 LOWER PART EQS.    BAND WIDTH + 1 =   32
 STRESS PERIOD=  1 TIMESTEP=301 LAYER=  2 ZONE=  2 ACTIVE CELLS=  961 NUMBER OF EQUATIONS=     961

 SOLVING FOR HEAD 

 NO OUTPUT CONTROL FOR STRESS PERIOD    1   TIME STEP  302
 SOLVING FOR ZETA FOR LAYER     1 ZONE     2

     671 UPPER PART EQS.       680 LOWER PART EQS.    BAND WIDTH + 1 =   31
 STRESS PERIOD=  1 TIMESTEP=302 LAYER=  1 ZONE=  2 ACTIVE CELLS= 1351 NUMBER OF EQUATIONS=    1351
 SOLVING FOR ZETA FOR LAYER     2 ZONE     2

     473 UPPER PART EQS.       488 LOWER PART EQS.    BAND WIDTH + 1 =   32
 STRESS PERIOD=  1 TIMESTEP=302 LAYER=  2 ZONE=  2 ACTIVE CELLS=  961 NUMBER OF EQUATIONS=     961

 SOLVING FOR HEAD 

 NO OUTPUT CONTROL FOR STRESS PERIOD    1   TIME STEP  303
 SOLVING FOR ZETA FOR LAYER     1 ZONE     2

     658 UPPER PART EQS.       642 LOWER PART EQS.    BAND WIDTH + 1 =   34
 STRESS PERIOD=  1 TIMESTEP=303 LAYER=  1 ZONE=  2 ACTIVE CELLS= 1300 NUMBER OF EQUATIONS=    1300
 SOLVING FOR ZETA FOR LAYER     2 ZONE     2

     473 UPPER PART EQS.       488 LOWER PART EQS.    BAND WIDTH + 1 =   32
 STRESS PERIOD=  1 TIMESTEP=303 LAYER=  2 ZONE=  2 ACTIVE CELLS=  961 NUMBER OF EQUATIONS=     961

 SOLVING FOR HEAD 

 NO OUTPUT CONTROL FOR STRESS PERIOD    1   TIME STEP  304
 SOLVING FOR ZETA FOR LAYER     1 ZONE     2

     671 UPPER PART EQS.       664 LOWER PART EQS.    BAND WIDTH + 1 =   33
 STRESS PERIOD=  1 TIMESTEP=304 LAYER=  1 ZONE=  2 ACTIVE CELLS= 1335 NUMBER OF EQUATIONS=    1335
 SOLVING FOR ZETA FOR LAYER     2 ZONE     2

     473 UPPER PART EQS.       488 LOWER PART EQS.    BAND WIDTH + 1 =   32
 STRESS PERIOD=  1 TIMESTEP=304 LAYER=  2 ZONE=  2 ACTIVE CELLS=  961 NUMBER OF EQUATIONS=     961

 SOLVING FOR HEAD 

 NO OUTPUT CONTROL FOR STRESS PERIOD    1   TIME STEP  305
 SOLVING FOR ZETA FOR LAYER     1 ZONE     2

     654 UPPER PART EQS.       646 LOWER PART EQS.    BAND WIDTH + 1 =   25
 STRESS PERIOD=  1 TIMESTEP=305 LAYER=  1 ZONE=  2 ACTIVE CELLS= 1300 NUMBER OF EQUATIONS=    1300
 SOLVING FOR ZETA FOR LAYER     2 ZONE     2

     473 UPPER PART EQS.       488 LOWER PART EQS.    BAND WIDTH + 1 =   32
 STRESS PERIOD=  1 TIMESTEP=305 LAYER=  2 ZONE=  2 ACTIVE CELLS=  961 NUMBER OF EQUATIONS=     961

 SOLVING FOR HEAD 

 NO OUTPUT CONTROL FOR STRESS PERIOD    1   TIME STEP  306
 SOLVING FOR ZETA FOR LAYER     1 ZONE     2

     658 UPPER PART EQS.       676 LOWER PART EQS.    BAND WIDTH + 1 =   43
 STRESS PERIOD=  1 TIMESTEP=306 LAYER=  1 ZONE=  2 ACTIVE CELLS= 1334 NUMBER OF EQUATIONS=    1334
 SOLVING FOR ZETA FOR LAYER     2 ZONE     2

     481 UPPER PART EQS.       488 LOWER PART EQS.    BAND WIDTH + 1 =   32
 STRESS PERIOD=  1 TIMESTEP=306 LAYER=  2 ZONE=  2 ACTIVE CELLS=  969 NUMBER OF EQUATIONS=     969

 SOLVING FOR HEAD 

 NO OUTPUT CONTROL FOR STRESS PERIOD    1   TIME STEP  307
 SOLVING FOR ZETA FOR LAYER     1 ZONE     2

     651 UPPER PART EQS.       632 LOWER PART EQS.    BAND WIDTH + 1 =   39
 STRESS PERIOD=  1 TIMESTEP=307 LAYER=  1 ZONE=  2 ACTIVE CELLS= 1283 NUMBER OF EQUATIONS=    1283
 SOLVING FOR ZETA FOR LAYER     2 ZONE     2

     481 UPPER PART EQS.       488 LOWER PART EQS.    BAND WIDTH + 1 =   32
 STRESS PERIOD=  1 TIMESTEP=307 LAYER=  2 ZONE=  2 ACTIVE CELLS=  969 NUMBER OF EQUATIONS=     969

 SOLVING FOR HEAD 

 NO OUTPUT CONTROL FOR STRESS PERIOD    1   TIME STEP  308
 SOLVING FOR ZETA FOR LAYER     1 ZONE     2

     670 UPPER PART EQS.       670 LOWER PART EQS.    BAND WIDTH + 1 =   26
 STRESS PERIOD=  1 TIMESTEP=308 LAYER=  1 ZONE=  2 ACTIVE CELLS= 1340 NUMBER OF EQUATIONS=    1340
 SOLVING FOR ZETA FOR LAYER     2 ZONE     2

     481 UPPER PART EQS.       488 LOWER PART EQS.    BAND WIDTH + 1 =   32
 STRESS PERIOD=  1 TIMESTEP=308 LAYER=  2 ZONE=  2 ACTIVE CELLS=  969 NUMBER OF EQUATIONS=     969

 SOLVING FOR HEAD 

 NO OUTPUT CONTROL FOR STRESS PERIOD    1   TIME STEP  309
 SOLVING FOR ZETA FOR LAYER     1 ZONE     2

     639 UPPER PART EQS.       634 LOWER PART EQS.    BAND WIDTH + 1 =   26
 STRESS PERIOD=  1 TIMESTEP=309 LAYER=  1 ZONE=  2 ACTIVE CELLS= 1273 NUMBER OF EQUATIONS=    1273
 SOLVING FOR ZETA FOR LAYER     2 ZONE     2

     481 UPPER PART EQS.       488 LOWER PART EQS.    BAND WIDTH + 1 =   32
 STRESS PERIOD=  1 TIMESTEP=309 LAYER=  2 ZONE=  2 ACTIVE CELLS=  969 NUMBER OF EQUATIONS=     969

 SOLVING FOR HEAD 

 NO OUTPUT CONTROL FOR STRESS PERIOD    1   TIME STEP  310
 SOLVING FOR ZETA FOR LAYER     1 ZONE     2

     672 UPPER PART EQS.       666 LOWER PART EQS.    BAND WIDTH + 1 =   31
 STRESS PERIOD=  1 TIMESTEP=310 LAYER=  1 ZONE=  2 ACTIVE CELLS= 1338 NUMBER OF EQUATIONS=    1338
 SOLVING FOR ZETA FOR LAYER     2 ZONE     2

     481 UPPER PART EQS.       488 LOWER PART EQS.    BAND WIDTH + 1 =   32
 STRESS PERIOD=  1 TIMESTEP=310 LAYER=  2 ZONE=  2 ACTIVE CELLS=  969 NUMBER OF EQUATIONS=     969

 SOLVING FOR HEAD 

 NO OUTPUT CONTROL FOR STRESS PERIOD    1   TIME STEP  311
 SOLVING FOR ZETA FOR LAYER     1 ZONE     2

     654 UPPER PART EQS.       630 LOWER PART EQS.    BAND WIDTH + 1 =   41
 STRESS PERIOD=  1 TIMESTEP=311 LAYER=  1 ZONE=  2 ACTIVE CELLS= 1284 NUMBER OF EQUATIONS=    1284
 SOLVING FOR ZETA FOR LAYER     2 ZONE     2

     485 UPPER PART EQS.       488 LOWER PART EQS.    BAND WIDTH + 1 =   30
 STRESS PERIOD=  1 TIMESTEP=311 LAYER=  2 ZONE=  2 ACTIVE CELLS=  973 NUMBER OF EQUATIONS=     973

 SOLVING FOR HEAD 

 NO OUTPUT CONTROL FOR STRESS PERIOD    1   TIME STEP  312
 SOLVING FOR ZETA FOR LAYER     1 ZONE     2

     651 UPPER PART EQS.       664 LOWER PART EQS.    BAND WIDTH + 1 =   35
 STRESS PERIOD=  1 TIMESTEP=312 LAYER=  1 ZONE=  2 ACTIVE CELLS= 1315 NUMBER OF EQUATIONS=    1315
 SOLVING FOR ZETA FOR LAYER     2 ZONE     2

     489 UPPER PART EQS.       488 LOWER PART EQS.    BAND WIDTH + 1 =   28
 STRESS PERIOD=  1 TIMESTEP=312 LAYER=  2 ZONE=  2 ACTIVE CELLS=  977 NUMBER OF EQUATIONS=     977

 SOLVING FOR HEAD 

 NO OUTPUT CONTROL FOR STRESS PERIOD    1   TIME STEP  313
 SOLVING FOR ZETA FOR LAYER     1 ZONE     2

     650 UPPER PART EQS.       640 LOWER PART EQS.    BAND WIDTH + 1 =   31
 STRESS PERIOD=  1 TIMESTEP=313 LAYER=  1 ZONE=  2 ACTIVE CELLS= 1290 NUMBER OF EQUATIONS=    1290
 SOLVING FOR ZETA FOR LAYER     2 ZONE     2

     493 UPPER PART EQS.       488 LOWER PART EQS.    BAND WIDTH + 1 =   30
 STRESS PERIOD=  1 TIMESTEP=313 LAYER=  2 ZONE=  2 ACTIVE CELLS=  981 NUMBER OF EQUATIONS=     981

 SOLVING FOR HEAD 

 NO OUTPUT CONTROL FOR STRESS PERIOD    1   TIME STEP  314
 SOLVING FOR ZETA FOR LAYER     1 ZONE     2

     665 UPPER PART EQS.       666 LOWER PART EQS.    BAND WIDTH + 1 =   26
 STRESS PERIOD=  1 TIMESTEP=314 LAYER=  1 ZONE=  2 ACTIVE CELLS= 1331 NUMBER OF EQUATIONS=    1331
 SOLVING FOR ZETA FOR LAYER     2 ZONE     2

     497 UPPER PART EQS.       490 LOWER PART EQS.    BAND WIDTH + 1 =   30
 STRESS PERIOD=  1 TIMESTEP=314 LAYER=  2 ZONE=  2 ACTIVE CELLS=  987 NUMBER OF EQUATIONS=     987

 SOLVING FOR HEAD 

 NO OUTPUT CONTROL FOR STRESS PERIOD    1   TIME STEP  315
 SOLVING FOR ZETA FOR LAYER     1 ZONE     2

     640 UPPER PART EQS.       624 LOWER PART EQS.    BAND WIDTH + 1 =   33
 STRESS PERIOD=  1 TIMESTEP=315 LAYER=  1 ZONE=  2 ACTIVE CELLS= 1264 NUMBER OF EQUATIONS=    1264
 SOLVING FOR ZETA FOR LAYER     2 ZONE     2

     499 UPPER PART EQS.       492 LOWER PART EQS.    BAND WIDTH + 1 =   30
 STRESS PERIOD=  1 TIMESTEP=315 LAYER=  2 ZONE=  2 ACTIVE CELLS=  991 NUMBER OF EQUATIONS=     991

 SOLVING FOR HEAD 

 NO OUTPUT CONTROL FOR STRESS PERIOD    1   TIME STEP  316
 SOLVING FOR ZETA FOR LAYER     1 ZONE     2

     658 UPPER PART EQS.       656 LOWER PART EQS.    BAND WIDTH + 1 =   27
 STRESS PERIOD=  1 TIMESTEP=316 LAYER=  1 ZONE=  2 ACTIVE CELLS= 1314 NUMBER OF EQUATIONS=    1314
 SOLVING FOR ZETA FOR LAYER     2 ZONE     2

     501 UPPER PART EQS.       492 LOWER PART EQS.    BAND WIDTH + 1 =   30
 STRESS PERIOD=  1 TIMESTEP=316 LAYER=  2 ZONE=  2 ACTIVE CELLS=  993 NUMBER OF EQUATIONS=     993

 SOLVING FOR HEAD 

 NO OUTPUT CONTROL FOR STRESS PERIOD    1   TIME STEP  317
 SOLVING FOR ZETA FOR LAYER     1 ZONE     2

     648 UPPER PART EQS.       626 LOWER PART EQS.    BAND WIDTH + 1 =   39
 STRESS PERIOD=  1 TIMESTEP=317 LAYER=  1 ZONE=  2 ACTIVE CELLS= 1274 NUMBER OF EQUATIONS=    1274
 SOLVING FOR ZETA FOR LAYER     2 ZONE     2

     505 UPPER PART EQS.       498 LOWER PART EQS.    BAND WIDTH + 1 =   30
 STRESS PERIOD=  1 TIMESTEP=317 LAYER=  2 ZONE=  2 ACTIVE CELLS= 1003 NUMBER OF EQUATIONS=    1003

 SOLVING FOR HEAD 

 NO OUTPUT CONTROL FOR STRESS PERIOD    1   TIME STEP  318
 SOLVING FOR ZETA FOR LAYER     1 ZONE     2

     649 UPPER PART EQS.       664 LOWER PART EQS.    BAND WIDTH + 1 =   33
 STRESS PERIOD=  1 TIMESTEP=318 LAYER=  1 ZONE=  2 ACTIVE CELLS= 1313 NUMBER OF EQUATIONS=    1313
 SOLVING FOR ZETA FOR LAYER     2 ZONE     2

     505 UPPER PART EQS.       500 LOWER PART EQS.    BAND WIDTH + 1 =   30
 STRESS PERIOD=  1 TIMESTEP=318 LAYER=  2 ZONE=  2 ACTIVE CELLS= 1005 NUMBER OF EQUATIONS=    1005

 SOLVING FOR HEAD 

 NO OUTPUT CONTROL FOR STRESS PERIOD    1   TIME STEP  319
 SOLVING FOR ZETA FOR LAYER     1 ZONE     2

     642 UPPER PART EQS.       624 LOWER PART EQS.    BAND WIDTH + 1 =   35
 STRESS PERIOD=  1 TIMESTEP=319 LAYER=  1 ZONE=  2 ACTIVE CELLS= 1266 NUMBER OF EQUATIONS=    1266
 SOLVING FOR ZETA FOR LAYER     2 ZONE     2

     509 UPPER PART EQS.       508 LOWER PART EQS.    BAND WIDTH + 1 =   32
 STRESS PERIOD=  1 TIMESTEP=319 LAYER=  2 ZONE=  2 ACTIVE CELLS= 1017 NUMBER OF EQUATIONS=    1017

 SOLVING FOR HEAD 

 NO OUTPUT CONTROL FOR STRESS PERIOD    1   TIME STEP  320
 SOLVING FOR ZETA FOR LAYER     1 ZONE     2

     661 UPPER PART EQS.       658 LOWER PART EQS.    BAND WIDTH + 1 =   29
 STRESS PERIOD=  1 TIMESTEP=320 LAYER=  1 ZONE=  2 ACTIVE CELLS= 1319 NUMBER OF EQUATIONS=    1319
 SOLVING FOR ZETA FOR LAYER     2 ZONE     2

     513 UPPER PART EQS.       508 LOWER PART EQS.    BAND WIDTH + 1 =   32
 STRESS PERIOD=  1 TIMESTEP=320 LAYER=  2 ZONE=  2 ACTIVE CELLS= 1021 NUMBER OF EQUATIONS=    1021

 SOLVING FOR HEAD 

 NO OUTPUT CONTROL FOR STRESS PERIOD    1   TIME STEP  321
 SOLVING FOR ZETA FOR LAYER     1 ZONE     2

     645 UPPER PART EQS.       624 LOWER PART EQS.    BAND WIDTH + 1 =   38
 STRESS PERIOD=  1 TIMESTEP=321 LAYER=  1 ZONE=  2 ACTIVE CELLS= 1269 NUMBER OF EQUATIONS=    1269
 SOLVING FOR ZETA FOR LAYER     2 ZONE     2

     517 UPPER PART EQS.       508 LOWER PART EQS.    BAND WIDTH + 1 =   32
 STRESS PERIOD=  1 TIMESTEP=321 LAYER=  2 ZONE=  2 ACTIVE CELLS= 1025 NUMBER OF EQUATIONS=    1025

 SOLVING FOR HEAD 

 NO OUTPUT CONTROL FOR STRESS PERIOD    1   TIME STEP  322
 SOLVING FOR ZETA FOR LAYER     1 ZONE     2

     651 UPPER PART EQS.       656 LOWER PART EQS.    BAND WIDTH + 1 =   30
 STRESS PERIOD=  1 TIMESTEP=322 LAYER=  1 ZONE=  2 ACTIVE CELLS= 1307 NUMBER OF EQUATIONS=    1307
 SOLVING FOR ZETA FOR LAYER     2 ZONE     2

     517 UPPER PART EQS.       508 LOWER PART EQS.    BAND WIDTH + 1 =   32
 STRESS PERIOD=  1 TIMESTEP=322 LAYER=  2 ZONE=  2 ACTIVE CELLS= 1025 NUMBER OF EQUATIONS=    1025

 SOLVING FOR HEAD 

 NO OUTPUT CONTROL FOR STRESS PERIOD    1   TIME STEP  323
 SOLVING FOR ZETA FOR LAYER     1 ZONE     2

     648 UPPER PART EQS.       634 LOWER PART EQS.    BAND WIDTH + 1 =   35
 STRESS PERIOD=  1 TIMESTEP=323 LAYER=  1 ZONE=  2 ACTIVE CELLS= 1282 NUMBER OF EQUATIONS=    1282
 SOLVING FOR ZETA FOR LAYER     2 ZONE     2

     517 UPPER PART EQS.       508 LOWER PART EQS.    BAND WIDTH + 1 =   32
 STRESS PERIOD=  1 TIMESTEP=323 LAYER=  2 ZONE=  2 ACTIVE CELLS= 1025 NUMBER OF EQUATIONS=    1025

 SOLVING FOR HEAD 

 NO OUTPUT CONTROL FOR STRESS PERIOD    1   TIME STEP  324
 SOLVING FOR ZETA FOR LAYER     1 ZONE     2

     664 UPPER PART EQS.       654 LOWER PART EQS.    BAND WIDTH + 1 =   35
 STRESS PERIOD=  1 TIMESTEP=324 LAYER=  1 ZONE=  2 ACTIVE CELLS= 1318 NUMBER OF EQUATIONS=    1318
 SOLVING FOR ZETA FOR LAYER     2 ZONE     2

     517 UPPER PART EQS.       508 LOWER PART EQS.    BAND WIDTH + 1 =   32
 STRESS PERIOD=  1 TIMESTEP=324 LAYER=  2 ZONE=  2 ACTIVE CELLS= 1025 NUMBER OF EQUATIONS=    1025

 SOLVING FOR HEAD 

 NO OUTPUT CONTROL FOR STRESS PERIOD    1   TIME STEP  325
 SOLVING FOR ZETA FOR LAYER     1 ZONE     2

     643 UPPER PART EQS.       620 LOWER PART EQS.    BAND WIDTH + 1 =   40
 STRESS PERIOD=  1 TIMESTEP=325 LAYER=  1 ZONE=  2 ACTIVE CELLS= 1263 NUMBER OF EQUATIONS=    1263
 SOLVING FOR ZETA FOR LAYER     2 ZONE     2

     517 UPPER PART EQS.       508 LOWER PART EQS.    BAND WIDTH + 1 =   32
 STRESS PERIOD=  1 TIMESTEP=325 LAYER=  2 ZONE=  2 ACTIVE CELLS= 1025 NUMBER OF EQUATIONS=    1025

 SOLVING FOR HEAD 

 NO OUTPUT CONTROL FOR STRESS PERIOD    1   TIME STEP  326
 SOLVING FOR ZETA FOR LAYER     1 ZONE     2

     650 UPPER PART EQS.       659 LOWER PART EQS.    BAND WIDTH + 1 =   30
 STRESS PERIOD=  1 TIMESTEP=326 LAYER=  1 ZONE=  2 ACTIVE CELLS= 1309 NUMBER OF EQUATIONS=    1309
 SOLVING FOR ZETA FOR LAYER     2 ZONE     2

     517 UPPER PART EQS.       512 LOWER PART EQS.    BAND WIDTH + 1 =   32
 STRESS PERIOD=  1 TIMESTEP=326 LAYER=  2 ZONE=  2 ACTIVE CELLS= 1029 NUMBER OF EQUATIONS=    1029

 SOLVING FOR HEAD 

 NO OUTPUT CONTROL FOR STRESS PERIOD    1   TIME STEP  327
 SOLVING FOR ZETA FOR LAYER     1 ZONE     2

     642 UPPER PART EQS.       627 LOWER PART EQS.    BAND WIDTH + 1 =   35
 STRESS PERIOD=  1 TIMESTEP=327 LAYER=  1 ZONE=  2 ACTIVE CELLS= 1269 NUMBER OF EQUATIONS=    1269
 SOLVING FOR ZETA FOR LAYER     2 ZONE     2

     517 UPPER PART EQS.       516 LOWER PART EQS.    BAND WIDTH + 1 =   32
 STRESS PERIOD=  1 TIMESTEP=327 LAYER=  2 ZONE=  2 ACTIVE CELLS= 1033 NUMBER OF EQUATIONS=    1033

 SOLVING FOR HEAD 

 NO OUTPUT CONTROL FOR STRESS PERIOD    1   TIME STEP  328
 SOLVING FOR ZETA FOR LAYER     1 ZONE     2

     655 UPPER PART EQS.       652 LOWER PART EQS.    BAND WIDTH + 1 =   29
 STRESS PERIOD=  1 TIMESTEP=328 LAYER=  1 ZONE=  2 ACTIVE CELLS= 1307 NUMBER OF EQUATIONS=    1307
 SOLVING FOR ZETA FOR LAYER     2 ZONE     2

     517 UPPER PART EQS.       516 LOWER PART EQS.    BAND WIDTH + 1 =   32
 STRESS PERIOD=  1 TIMESTEP=328 LAYER=  2 ZONE=  2 ACTIVE CELLS= 1033 NUMBER OF EQUATIONS=    1033

 SOLVING FOR HEAD 

 NO OUTPUT CONTROL FOR STRESS PERIOD    1   TIME STEP  329
 SOLVING FOR ZETA FOR LAYER     1 ZONE     2

     643 UPPER PART EQS.       627 LOWER PART EQS.    BAND WIDTH + 1 =   34
 STRESS PERIOD=  1 TIMESTEP=329 LAYER=  1 ZONE=  2 ACTIVE CELLS= 1270 NUMBER OF EQUATIONS=    1270
 SOLVING FOR ZETA FOR LAYER     2 ZONE     2

     517 UPPER PART EQS.       516 LOWER PART EQS.    BAND WIDTH + 1 =   32
 STRESS PERIOD=  1 TIMESTEP=329 LAYER=  2 ZONE=  2 ACTIVE CELLS= 1033 NUMBER OF EQUATIONS=    1033

 SOLVING FOR HEAD 

 NO OUTPUT CONTROL FOR STRESS PERIOD    1   TIME STEP  330
 SOLVING FOR ZETA FOR LAYER     1 ZONE     2

     652 UPPER PART EQS.       659 LOWER PART EQS.    BAND WIDTH + 1 =   29
 STRESS PERIOD=  1 TIMESTEP=330 LAYER=  1 ZONE=  2 ACTIVE CELLS= 1311 NUMBER OF EQUATIONS=    1311
 SOLVING FOR ZETA FOR LAYER     2 ZONE     2

     517 UPPER PART EQS.       516 LOWER PART EQS.    BAND WIDTH + 1 =   32
 STRESS PERIOD=  1 TIMESTEP=330 LAYER=  2 ZONE=  2 ACTIVE CELLS= 1033 NUMBER OF EQUATIONS=    1033

 SOLVING FOR HEAD 

 NO OUTPUT CONTROL FOR STRESS PERIOD    1   TIME STEP  331
 SOLVING FOR ZETA FOR LAYER     1 ZONE     2

     636 UPPER PART EQS.       620 LOWER PART EQS.    BAND WIDTH + 1 =   33
 STRESS PERIOD=  1 TIMESTEP=331 LAYER=  1 ZONE=  2 ACTIVE CELLS= 1256 NUMBER OF EQUATIONS=    1256
 SOLVING FOR ZETA FOR LAYER     2 ZONE     2

     517 UPPER PART EQS.       516 LOWER PART EQS.    BAND WIDTH + 1 =   32
 STRESS PERIOD=  1 TIMESTEP=331 LAYER=  2 ZONE=  2 ACTIVE CELLS= 1033 NUMBER OF EQUATIONS=    1033

 SOLVING FOR HEAD 

 NO OUTPUT CONTROL FOR STRESS PERIOD    1   TIME STEP  332
 SOLVING FOR ZETA FOR LAYER     1 ZONE     2

     656 UPPER PART EQS.       656 LOWER PART EQS.    BAND WIDTH + 1 =   25
 STRESS PERIOD=  1 TIMESTEP=332 LAYER=  1 ZONE=  2 ACTIVE CELLS= 1312 NUMBER OF EQUATIONS=    1312
 SOLVING FOR ZETA FOR LAYER     2 ZONE     2

     517 UPPER PART EQS.       516 LOWER PART EQS.    BAND WIDTH + 1 =   32
 STRESS PERIOD=  1 TIMESTEP=332 LAYER=  2 ZONE=  2 ACTIVE CELLS= 1033 NUMBER OF EQUATIONS=    1033

 SOLVING FOR HEAD 

 NO OUTPUT CONTROL FOR STRESS PERIOD    1   TIME STEP  333
 SOLVING FOR ZETA FOR LAYER     1 ZONE     2

     628 UPPER PART EQS.       630 LOWER PART EQS.    BAND WIDTH + 1 =   27
 STRESS PERIOD=  1 TIMESTEP=333 LAYER=  1 ZONE=  2 ACTIVE CELLS= 1258 NUMBER OF EQUATIONS=    1258
 SOLVING FOR ZETA FOR LAYER     2 ZONE     2

     519 UPPER PART EQS.       516 LOWER PART EQS.    BAND WIDTH + 1 =   32
 STRESS PERIOD=  1 TIMESTEP=333 LAYER=  2 ZONE=  2 ACTIVE CELLS= 1035 NUMBER OF EQUATIONS=    1035

 SOLVING FOR HEAD 

 NO OUTPUT CONTROL FOR STRESS PERIOD    1   TIME STEP  334
 SOLVING FOR ZETA FOR LAYER     1 ZONE     2

     646 UPPER PART EQS.       652 LOWER PART EQS.    BAND WIDTH + 1 =   31
 STRESS PERIOD=  1 TIMESTEP=334 LAYER=  1 ZONE=  2 ACTIVE CELLS= 1298 NUMBER OF EQUATIONS=    1298
 SOLVING FOR ZETA FOR LAYER     2 ZONE     2

     521 UPPER PART EQS.       516 LOWER PART EQS.    BAND WIDTH + 1 =   32
 STRESS PERIOD=  1 TIMESTEP=334 LAYER=  2 ZONE=  2 ACTIVE CELLS= 1037 NUMBER OF EQUATIONS=    1037

 SOLVING FOR HEAD 

 NO OUTPUT CONTROL FOR STRESS PERIOD    1   TIME STEP  335
 SOLVING FOR ZETA FOR LAYER     1 ZONE     2

     634 UPPER PART EQS.       627 LOWER PART EQS.    BAND WIDTH + 1 =   25
 STRESS PERIOD=  1 TIMESTEP=335 LAYER=  1 ZONE=  2 ACTIVE CELLS= 1261 NUMBER OF EQUATIONS=    1261
 SOLVING FOR ZETA FOR LAYER     2 ZONE     2

     525 UPPER PART EQS.       516 LOWER PART EQS.    BAND WIDTH + 1 =   32
 STRESS PERIOD=  1 TIMESTEP=335 LAYER=  2 ZONE=  2 ACTIVE CELLS= 1041 NUMBER OF EQUATIONS=    1041

 SOLVING FOR HEAD 

 NO OUTPUT CONTROL FOR STRESS PERIOD    1   TIME STEP  336
 SOLVING FOR ZETA FOR LAYER     1 ZONE     2

     640 UPPER PART EQS.       659 LOWER PART EQS.    BAND WIDTH + 1 =   41
 STRESS PERIOD=  1 TIMESTEP=336 LAYER=  1 ZONE=  2 ACTIVE CELLS= 1299 NUMBER OF EQUATIONS=    1299
 SOLVING FOR ZETA FOR LAYER     2 ZONE     2

     525 UPPER PART EQS.       516 LOWER PART EQS.    BAND WIDTH + 1 =   32
 STRESS PERIOD=  1 TIMESTEP=336 LAYER=  2 ZONE=  2 ACTIVE CELLS= 1041 NUMBER OF EQUATIONS=    1041

 SOLVING FOR HEAD 

 NO OUTPUT CONTROL FOR STRESS PERIOD    1   TIME STEP  337
 SOLVING FOR ZETA FOR LAYER     1 ZONE     2

     622 UPPER PART EQS.       624 LOWER PART EQS.    BAND WIDTH + 1 =   31
 STRESS PERIOD=  1 TIMESTEP=337 LAYER=  1 ZONE=  2 ACTIVE CELLS= 1246 NUMBER OF EQUATIONS=    1246
 SOLVING FOR ZETA FOR LAYER     2 ZONE     2

     525 UPPER PART EQS.       516 LOWER PART EQS.    BAND WIDTH + 1 =   32
 STRESS PERIOD=  1 TIMESTEP=337 LAYER=  2 ZONE=  2 ACTIVE CELLS= 1041 NUMBER OF EQUATIONS=    1041

 SOLVING FOR HEAD 

 NO OUTPUT CONTROL FOR STRESS PERIOD    1   TIME STEP  338
 SOLVING FOR ZETA FOR LAYER     1 ZONE     2

     648 UPPER PART EQS.       659 LOWER PART EQS.    BAND WIDTH + 1 =   35
 STRESS PERIOD=  1 TIMESTEP=338 LAYER=  1 ZONE=  2 ACTIVE CELLS= 1307 NUMBER OF EQUATIONS=    1307
 SOLVING FOR ZETA FOR LAYER     2 ZONE     2

     525 UPPER PART EQS.       516 LOWER PART EQS.    BAND WIDTH + 1 =   32
 STRESS PERIOD=  1 TIMESTEP=338 LAYER=  2 ZONE=  2 ACTIVE CELLS= 1041 NUMBER OF EQUATIONS=    1041

 SOLVING FOR HEAD 

 NO OUTPUT CONTROL FOR STRESS PERIOD    1   TIME STEP  339
 SOLVING FOR ZETA FOR LAYER     1 ZONE     2

     626 UPPER PART EQS.       623 LOWER PART EQS.    BAND WIDTH + 1 =   24
 STRESS PERIOD=  1 TIMESTEP=339 LAYER=  1 ZONE=  2 ACTIVE CELLS= 1249 NUMBER OF EQUATIONS=    1249
 SOLVING FOR ZETA FOR LAYER     2 ZONE     2

     533 UPPER PART EQS.       516 LOWER PART EQS.    BAND WIDTH + 1 =   34
 STRESS PERIOD=  1 TIMESTEP=339 LAYER=  2 ZONE=  2 ACTIVE CELLS= 1049 NUMBER OF EQUATIONS=    1049

 SOLVING FOR HEAD 

 NO OUTPUT CONTROL FOR STRESS PERIOD    1   TIME STEP  340
 SOLVING FOR ZETA FOR LAYER     1 ZONE     2

     638 UPPER PART EQS.       654 LOWER PART EQS.    BAND WIDTH + 1 =   41
 STRESS PERIOD=  1 TIMESTEP=340 LAYER=  1 ZONE=  2 ACTIVE CELLS= 1292 NUMBER OF EQUATIONS=    1292
 SOLVING FOR ZETA FOR LAYER     2 ZONE     2

     533 UPPER PART EQS.       520 LOWER PART EQS.    BAND WIDTH + 1 =   32
 STRESS PERIOD=  1 TIMESTEP=340 LAYER=  2 ZONE=  2 ACTIVE CELLS= 1053 NUMBER OF EQUATIONS=    1053

 SOLVING FOR HEAD 

 NO OUTPUT CONTROL FOR STRESS PERIOD    1   TIME STEP  341
 SOLVING FOR ZETA FOR LAYER     1 ZONE     2

     628 UPPER PART EQS.       632 LOWER PART EQS.    BAND WIDTH + 1 =   29
 STRESS PERIOD=  1 TIMESTEP=341 LAYER=  1 ZONE=  2 ACTIVE CELLS= 1260 NUMBER OF EQUATIONS=    1260
 SOLVING FOR ZETA FOR LAYER     2 ZONE     2

     533 UPPER PART EQS.       520 LOWER PART EQS.    BAND WIDTH + 1 =   32
 STRESS PERIOD=  1 TIMESTEP=341 LAYER=  2 ZONE=  2 ACTIVE CELLS= 1053 NUMBER OF EQUATIONS=    1053

 SOLVING FOR HEAD 

 NO OUTPUT CONTROL FOR STRESS PERIOD    1   TIME STEP  342
 SOLVING FOR ZETA FOR LAYER     1 ZONE     2

     634 UPPER PART EQS.       644 LOWER PART EQS.    BAND WIDTH + 1 =   35
 STRESS PERIOD=  1 TIMESTEP=342 LAYER=  1 ZONE=  2 ACTIVE CELLS= 1278 NUMBER OF EQUATIONS=    1278
 SOLVING FOR ZETA FOR LAYER     2 ZONE     2

     533 UPPER PART EQS.       524 LOWER PART EQS.    BAND WIDTH + 1 =   30
 STRESS PERIOD=  1 TIMESTEP=342 LAYER=  2 ZONE=  2 ACTIVE CELLS= 1057 NUMBER OF EQUATIONS=    1057

 SOLVING FOR HEAD 

 NO OUTPUT CONTROL FOR STRESS PERIOD    1   TIME STEP  343
 SOLVING FOR ZETA FOR LAYER     1 ZONE     2

     618 UPPER PART EQS.       613 LOWER PART EQS.    BAND WIDTH + 1 =   23
 STRESS PERIOD=  1 TIMESTEP=343 LAYER=  1 ZONE=  2 ACTIVE CELLS= 1231 NUMBER OF EQUATIONS=    1231
 SOLVING FOR ZETA FOR LAYER     2 ZONE     2

     533 UPPER PART EQS.       524 LOWER PART EQS.    BAND WIDTH + 1 =   30
 STRESS PERIOD=  1 TIMESTEP=343 LAYER=  2 ZONE=  2 ACTIVE CELLS= 1057 NUMBER OF EQUATIONS=    1057

 SOLVING FOR HEAD 

 NO OUTPUT CONTROL FOR STRESS PERIOD    1   TIME STEP  344
 SOLVING FOR ZETA FOR LAYER     1 ZONE     2

     644 UPPER PART EQS.       653 LOWER PART EQS.    BAND WIDTH + 1 =   31
 STRESS PERIOD=  1 TIMESTEP=344 LAYER=  1 ZONE=  2 ACTIVE CELLS= 1297 NUMBER OF EQUATIONS=    1297
 SOLVING FOR ZETA FOR LAYER     2 ZONE     2

     533 UPPER PART EQS.       527 LOWER PART EQS.    BAND WIDTH + 1 =   30
 STRESS PERIOD=  1 TIMESTEP=344 LAYER=  2 ZONE=  2 ACTIVE CELLS= 1060 NUMBER OF EQUATIONS=    1060

 SOLVING FOR HEAD 

 NO OUTPUT CONTROL FOR STRESS PERIOD    1   TIME STEP  345
 SOLVING FOR ZETA FOR LAYER     1 ZONE     2

     618 UPPER PART EQS.       614 LOWER PART EQS.    BAND WIDTH + 1 =   25
 STRESS PERIOD=  1 TIMESTEP=345 LAYER=  1 ZONE=  2 ACTIVE CELLS= 1232 NUMBER OF EQUATIONS=    1232
 SOLVING FOR ZETA FOR LAYER     2 ZONE     2

     533 UPPER PART EQS.       530 LOWER PART EQS.    BAND WIDTH + 1 =   30
 STRESS PERIOD=  1 TIMESTEP=345 LAYER=  2 ZONE=  2 ACTIVE CELLS= 1063 NUMBER OF EQUATIONS=    1063

 SOLVING FOR HEAD 

 NO OUTPUT CONTROL FOR STRESS PERIOD    1   TIME STEP  346
 SOLVING FOR ZETA FOR LAYER     1 ZONE     2

     630 UPPER PART EQS.       648 LOWER PART EQS.    BAND WIDTH + 1 =   39
 STRESS PERIOD=  1 TIMESTEP=346 LAYER=  1 ZONE=  2 ACTIVE CELLS= 1278 NUMBER OF EQUATIONS=    1278
 SOLVING FOR ZETA FOR LAYER     2 ZONE     2

     533 UPPER PART EQS.       540 LOWER PART EQS.    BAND WIDTH + 1 =   32
 STRESS PERIOD=  1 TIMESTEP=346 LAYER=  2 ZONE=  2 ACTIVE CELLS= 1073 NUMBER OF EQUATIONS=    1073

 SOLVING FOR HEAD 

 NO OUTPUT CONTROL FOR STRESS PERIOD    1   TIME STEP  347
 SOLVING FOR ZETA FOR LAYER     1 ZONE     2

     624 UPPER PART EQS.       608 LOWER PART EQS.    BAND WIDTH + 1 =   31
 STRESS PERIOD=  1 TIMESTEP=347 LAYER=  1 ZONE=  2 ACTIVE CELLS= 1232 NUMBER OF EQUATIONS=    1232
 SOLVING FOR ZETA FOR LAYER     2 ZONE     2

     533 UPPER PART EQS.       540 LOWER PART EQS.    BAND WIDTH + 1 =   32
 STRESS PERIOD=  1 TIMESTEP=347 LAYER=  2 ZONE=  2 ACTIVE CELLS= 1073 NUMBER OF EQUATIONS=    1073

 SOLVING FOR HEAD 

 NO OUTPUT CONTROL FOR STRESS PERIOD    1   TIME STEP  348
 SOLVING FOR ZETA FOR LAYER     1 ZONE     2

     634 UPPER PART EQS.       641 LOWER PART EQS.    BAND WIDTH + 1 =   31
 STRESS PERIOD=  1 TIMESTEP=348 LAYER=  1 ZONE=  2 ACTIVE CELLS= 1275 NUMBER OF EQUATIONS=    1275
 SOLVING FOR ZETA FOR LAYER     2 ZONE     2

     533 UPPER PART EQS.       540 LOWER PART EQS.    BAND WIDTH + 1 =   32
 STRESS PERIOD=  1 TIMESTEP=348 LAYER=  2 ZONE=  2 ACTIVE CELLS= 1073 NUMBER OF EQUATIONS=    1073

 SOLVING FOR HEAD 

 NO OUTPUT CONTROL FOR STRESS PERIOD    1   TIME STEP  349
 SOLVING FOR ZETA FOR LAYER     1 ZONE     2

     610 UPPER PART EQS.       607 LOWER PART EQS.    BAND WIDTH + 1 =   23
 STRESS PERIOD=  1 TIMESTEP=349 LAYER=  1 ZONE=  2 ACTIVE CELLS= 1217 NUMBER OF EQUATIONS=    1217
 SOLVING FOR ZETA FOR LAYER     2 ZONE     2

     533 UPPER PART EQS.       540 LOWER PART EQS.    BAND WIDTH + 1 =   32
 STRESS PERIOD=  1 TIMESTEP=349 LAYER=  2 ZONE=  2 ACTIVE CELLS= 1073 NUMBER OF EQUATIONS=    1073

 SOLVING FOR HEAD 

 NO OUTPUT CONTROL FOR STRESS PERIOD    1   TIME STEP  350
 SOLVING FOR ZETA FOR LAYER     1 ZONE     2

     636 UPPER PART EQS.       643 LOWER PART EQS.    BAND WIDTH + 1 =   31
 STRESS PERIOD=  1 TIMESTEP=350 LAYER=  1 ZONE=  2 ACTIVE CELLS= 1279 NUMBER OF EQUATIONS=    1279
 SOLVING FOR ZETA FOR LAYER     2 ZONE     2

     533 UPPER PART EQS.       540 LOWER PART EQS.    BAND WIDTH + 1 =   32
 STRESS PERIOD=  1 TIMESTEP=350 LAYER=  2 ZONE=  2 ACTIVE CELLS= 1073 NUMBER OF EQUATIONS=    1073

 SOLVING FOR HEAD 

 NO OUTPUT CONTROL FOR STRESS PERIOD    1   TIME STEP  351
 SOLVING FOR ZETA FOR LAYER     1 ZONE     2

     618 UPPER PART EQS.       611 LOWER PART EQS.    BAND WIDTH + 1 =   26
 STRESS PERIOD=  1 TIMESTEP=351 LAYER=  1 ZONE=  2 ACTIVE CELLS= 1229 NUMBER OF EQUATIONS=    1229
 SOLVING FOR ZETA FOR LAYER     2 ZONE     2

     533 UPPER PART EQS.       540 LOWER PART EQS.    BAND WIDTH + 1 =   32
 STRESS PERIOD=  1 TIMESTEP=351 LAYER=  2 ZONE=  2 ACTIVE CELLS= 1073 NUMBER OF EQUATIONS=    1073

 SOLVING FOR HEAD 

 NO OUTPUT CONTROL FOR STRESS PERIOD    1   TIME STEP  352
 SOLVING FOR ZETA FOR LAYER     1 ZONE     2

     626 UPPER PART EQS.       628 LOWER PART EQS.    BAND WIDTH + 1 =   26
 STRESS PERIOD=  1 TIMESTEP=352 LAYER=  1 ZONE=  2 ACTIVE CELLS= 1254 NUMBER OF EQUATIONS=    1254
 SOLVING FOR ZETA FOR LAYER     2 ZONE     2

     533 UPPER PART EQS.       540 LOWER PART EQS.    BAND WIDTH + 1 =   32
 STRESS PERIOD=  1 TIMESTEP=352 LAYER=  2 ZONE=  2 ACTIVE CELLS= 1073 NUMBER OF EQUATIONS=    1073

 SOLVING FOR HEAD 

 NO OUTPUT CONTROL FOR STRESS PERIOD    1   TIME STEP  353
 SOLVING FOR ZETA FOR LAYER     1 ZONE     2

     620 UPPER PART EQS.       608 LOWER PART EQS.    BAND WIDTH + 1 =   30
 STRESS PERIOD=  1 TIMESTEP=353 LAYER=  1 ZONE=  2 ACTIVE CELLS= 1228 NUMBER OF EQUATIONS=    1228
 SOLVING FOR ZETA FOR LAYER     2 ZONE     2

     533 UPPER PART EQS.       540 LOWER PART EQS.    BAND WIDTH + 1 =   32
 STRESS PERIOD=  1 TIMESTEP=353 LAYER=  2 ZONE=  2 ACTIVE CELLS= 1073 NUMBER OF EQUATIONS=    1073

 SOLVING FOR HEAD 

 NO OUTPUT CONTROL FOR STRESS PERIOD    1   TIME STEP  354
 SOLVING FOR ZETA FOR LAYER     1 ZONE     2

     634 UPPER PART EQS.       634 LOWER PART EQS.    BAND WIDTH + 1 =   26
 STRESS PERIOD=  1 TIMESTEP=354 LAYER=  1 ZONE=  2 ACTIVE CELLS= 1268 NUMBER OF EQUATIONS=    1268
 SOLVING FOR ZETA FOR LAYER     2 ZONE     2

     533 UPPER PART EQS.       540 LOWER PART EQS.    BAND WIDTH + 1 =   32
 STRESS PERIOD=  1 TIMESTEP=354 LAYER=  2 ZONE=  2 ACTIVE CELLS= 1073 NUMBER OF EQUATIONS=    1073

 SOLVING FOR HEAD 

 NO OUTPUT CONTROL FOR STRESS PERIOD    1   TIME STEP  355
 SOLVING FOR ZETA FOR LAYER     1 ZONE     2

     610 UPPER PART EQS.       600 LOWER PART EQS.    BAND WIDTH + 1 =   30
 STRESS PERIOD=  1 TIMESTEP=355 LAYER=  1 ZONE=  2 ACTIVE CELLS= 1210 NUMBER OF EQUATIONS=    1210
 SOLVING FOR ZETA FOR LAYER     2 ZONE     2

     533 UPPER PART EQS.       540 LOWER PART EQS.    BAND WIDTH + 1 =   32
 STRESS PERIOD=  1 TIMESTEP=355 LAYER=  2 ZONE=  2 ACTIVE CELLS= 1073 NUMBER OF EQUATIONS=    1073

 SOLVING FOR HEAD 

 NO OUTPUT CONTROL FOR STRESS PERIOD    1   TIME STEP  356
 SOLVING FOR ZETA FOR LAYER     1 ZONE     2

     636 UPPER PART EQS.       632 LOWER PART EQS.    BAND WIDTH + 1 =   27
 STRESS PERIOD=  1 TIMESTEP=356 LAYER=  1 ZONE=  2 ACTIVE CELLS= 1268 NUMBER OF EQUATIONS=    1268
 SOLVING FOR ZETA FOR LAYER     2 ZONE     2

     533 UPPER PART EQS.       540 LOWER PART EQS.    BAND WIDTH + 1 =   32
 STRESS PERIOD=  1 TIMESTEP=356 LAYER=  2 ZONE=  2 ACTIVE CELLS= 1073 NUMBER OF EQUATIONS=    1073

 SOLVING FOR HEAD 

 NO OUTPUT CONTROL FOR STRESS PERIOD    1   TIME STEP  357
 SOLVING FOR ZETA FOR LAYER     1 ZONE     2

     618 UPPER PART EQS.       610 LOWER PART EQS.    BAND WIDTH + 1 =   28
 STRESS PERIOD=  1 TIMESTEP=357 LAYER=  1 ZONE=  2 ACTIVE CELLS= 1228 NUMBER OF EQUATIONS=    1228
 SOLVING FOR ZETA FOR LAYER     2 ZONE     2

     533 UPPER PART EQS.       540 LOWER PART EQS.    BAND WIDTH + 1 =   32
 STRESS PERIOD=  1 TIMESTEP=357 LAYER=  2 ZONE=  2 ACTIVE CELLS= 1073 NUMBER OF EQUATIONS=    1073

 SOLVING FOR HEAD 

 NO OUTPUT CONTROL FOR STRESS PERIOD    1   TIME STEP  358
 SOLVING FOR ZETA FOR LAYER     1 ZONE     2

     626 UPPER PART EQS.       624 LOWER PART EQS.    BAND WIDTH + 1 =   26
 STRESS PERIOD=  1 TIMESTEP=358 LAYER=  1 ZONE=  2 ACTIVE CELLS= 1250 NUMBER OF EQUATIONS=    1250
 SOLVING FOR ZETA FOR LAYER     2 ZONE     2

     533 UPPER PART EQS.       540 LOWER PART EQS.    BAND WIDTH + 1 =   32
 STRESS PERIOD=  1 TIMESTEP=358 LAYER=  2 ZONE=  2 ACTIVE CELLS= 1073 NUMBER OF EQUATIONS=    1073

 SOLVING FOR HEAD 

 NO OUTPUT CONTROL FOR STRESS PERIOD    1   TIME STEP  359
 SOLVING FOR ZETA FOR LAYER     1 ZONE     2

     620 UPPER PART EQS.       608 LOWER PART EQS.    BAND WIDTH + 1 =   31
 STRESS PERIOD=  1 TIMESTEP=359 LAYER=  1 ZONE=  2 ACTIVE CELLS= 1228 NUMBER OF EQUATIONS=    1228
 SOLVING FOR ZETA FOR LAYER     2 ZONE     2

     533 UPPER PART EQS.       540 LOWER PART EQS.    BAND WIDTH + 1 =   32
 STRESS PERIOD=  1 TIMESTEP=359 LAYER=  2 ZONE=  2 ACTIVE CELLS= 1073 NUMBER OF EQUATIONS=    1073

 SOLVING FOR HEAD 

 NO OUTPUT CONTROL FOR STRESS PERIOD    1   TIME STEP  360
 SOLVING FOR ZETA FOR LAYER     1 ZONE     2

     632 UPPER PART EQS.       634 LOWER PART EQS.    BAND WIDTH + 1 =   27
 STRESS PERIOD=  1 TIMESTEP=360 LAYER=  1 ZONE=  2 ACTIVE CELLS= 1266 NUMBER OF EQUATIONS=    1266
 SOLVING FOR ZETA FOR LAYER     2 ZONE     2

     533 UPPER PART EQS.       540 LOWER PART EQS.    BAND WIDTH + 1 =   32
 STRESS PERIOD=  1 TIMESTEP=360 LAYER=  2 ZONE=  2 ACTIVE CELLS= 1073 NUMBER OF EQUATIONS=    1073

 SOLVING FOR HEAD 

 NO OUTPUT CONTROL FOR STRESS PERIOD    1   TIME STEP  361
 SOLVING FOR ZETA FOR LAYER     1 ZONE     2

     608 UPPER PART EQS.       592 LOWER PART EQS.    BAND WIDTH + 1 =   35
 STRESS PERIOD=  1 TIMESTEP=361 LAYER=  1 ZONE=  2 ACTIVE CELLS= 1200 NUMBER OF EQUATIONS=    1200
 SOLVING FOR ZETA FOR LAYER     2 ZONE     2

     533 UPPER PART EQS.       540 LOWER PART EQS.    BAND WIDTH + 1 =   32
 STRESS PERIOD=  1 TIMESTEP=361 LAYER=  2 ZONE=  2 ACTIVE CELLS= 1073 NUMBER OF EQUATIONS=    1073

 SOLVING FOR HEAD 

 NO OUTPUT CONTROL FOR STRESS PERIOD    1   TIME STEP  362
 SOLVING FOR ZETA FOR LAYER     1 ZONE     2

     632 UPPER PART EQS.       626 LOWER PART EQS.    BAND WIDTH + 1 =   29
 STRESS PERIOD=  1 TIMESTEP=362 LAYER=  1 ZONE=  2 ACTIVE CELLS= 1258 NUMBER OF EQUATIONS=    1258
 SOLVING FOR ZETA FOR LAYER     2 ZONE     2

     535 UPPER PART EQS.       540 LOWER PART EQS.    BAND WIDTH + 1 =   32
 STRESS PERIOD=  1 TIMESTEP=362 LAYER=  2 ZONE=  2 ACTIVE CELLS= 1075 NUMBER OF EQUATIONS=    1075

 SOLVING FOR HEAD 

 NO OUTPUT CONTROL FOR STRESS PERIOD    1   TIME STEP  363
 SOLVING FOR ZETA FOR LAYER     1 ZONE     2

     610 UPPER PART EQS.       608 LOWER PART EQS.    BAND WIDTH + 1 =   23
 STRESS PERIOD=  1 TIMESTEP=363 LAYER=  1 ZONE=  2 ACTIVE CELLS= 1218 NUMBER OF EQUATIONS=    1218
 SOLVING FOR ZETA FOR LAYER     2 ZONE     2

     537 UPPER PART EQS.       540 LOWER PART EQS.    BAND WIDTH + 1 =   32
 STRESS PERIOD=  1 TIMESTEP=363 LAYER=  2 ZONE=  2 ACTIVE CELLS= 1077 NUMBER OF EQUATIONS=    1077

 SOLVING FOR HEAD 

 NO OUTPUT CONTROL FOR STRESS PERIOD    1   TIME STEP  364
 SOLVING FOR ZETA FOR LAYER     1 ZONE     2

     612 UPPER PART EQS.       614 LOWER PART EQS.    BAND WIDTH + 1 =   27
 STRESS PERIOD=  1 TIMESTEP=364 LAYER=  1 ZONE=  2 ACTIVE CELLS= 1226 NUMBER OF EQUATIONS=    1226
 SOLVING FOR ZETA FOR LAYER     2 ZONE     2

     537 UPPER PART EQS.       540 LOWER PART EQS.    BAND WIDTH + 1 =   32
 STRESS PERIOD=  1 TIMESTEP=364 LAYER=  2 ZONE=  2 ACTIVE CELLS= 1077 NUMBER OF EQUATIONS=    1077

 SOLVING FOR HEAD 

 NO OUTPUT CONTROL FOR STRESS PERIOD    1   TIME STEP  365
 SOLVING FOR ZETA FOR LAYER     1 ZONE     2

     614 UPPER PART EQS.       608 LOWER PART EQS.    BAND WIDTH + 1 =   25
 STRESS PERIOD=  1 TIMESTEP=365 LAYER=  1 ZONE=  2 ACTIVE CELLS= 1222 NUMBER OF EQUATIONS=    1222
 SOLVING FOR ZETA FOR LAYER     2 ZONE     2

     541 UPPER PART EQS.       540 LOWER PART EQS.    BAND WIDTH + 1 =   32
 STRESS PERIOD=  1 TIMESTEP=365 LAYER=  2 ZONE=  2 ACTIVE CELLS= 1081 NUMBER OF EQUATIONS=    1081

 SOLVING FOR HEAD 

 NO OUTPUT CONTROL FOR STRESS PERIOD    1   TIME STEP  366
 SOLVING FOR ZETA FOR LAYER     1 ZONE     2

     626 UPPER PART EQS.       624 LOWER PART EQS.    BAND WIDTH + 1 =   25
 STRESS PERIOD=  1 TIMESTEP=366 LAYER=  1 ZONE=  2 ACTIVE CELLS= 1250 NUMBER OF EQUATIONS=    1250
 SOLVING FOR ZETA FOR LAYER     2 ZONE     2

     541 UPPER PART EQS.       540 LOWER PART EQS.    BAND WIDTH + 1 =   32
 STRESS PERIOD=  1 TIMESTEP=366 LAYER=  2 ZONE=  2 ACTIVE CELLS= 1081 NUMBER OF EQUATIONS=    1081

 SOLVING FOR HEAD 

 NO OUTPUT CONTROL FOR STRESS PERIOD    1   TIME STEP  367
 SOLVING FOR ZETA FOR LAYER     1 ZONE     2

     602 UPPER PART EQS.       592 LOWER PART EQS.    BAND WIDTH + 1 =   29
 STRESS PERIOD=  1 TIMESTEP=367 LAYER=  1 ZONE=  2 ACTIVE CELLS= 1194 NUMBER OF EQUATIONS=    1194
 SOLVING FOR ZETA FOR LAYER     2 ZONE     2

     541 UPPER PART EQS.       540 LOWER PART EQS.    BAND WIDTH + 1 =   32
 STRESS PERIOD=  1 TIMESTEP=367 LAYER=  2 ZONE=  2 ACTIVE CELLS= 1081 NUMBER OF EQUATIONS=    1081

 SOLVING FOR HEAD 

 NO OUTPUT CONTROL FOR STRESS PERIOD    1   TIME STEP  368
 SOLVING FOR ZETA FOR LAYER     1 ZONE     2

     622 UPPER PART EQS.       616 LOWER PART EQS.    BAND WIDTH + 1 =   29
 STRESS PERIOD=  1 TIMESTEP=368 LAYER=  1 ZONE=  2 ACTIVE CELLS= 1238 NUMBER OF EQUATIONS=    1238
 SOLVING FOR ZETA FOR LAYER     2 ZONE     2

     541 UPPER PART EQS.       540 LOWER PART EQS.    BAND WIDTH + 1 =   32
 STRESS PERIOD=  1 TIMESTEP=368 LAYER=  2 ZONE=  2 ACTIVE CELLS= 1081 NUMBER OF EQUATIONS=    1081

 SOLVING FOR HEAD 

 NO OUTPUT CONTROL FOR STRESS PERIOD    1   TIME STEP  369
 SOLVING FOR ZETA FOR LAYER     1 ZONE     2

     612 UPPER PART EQS.       598 LOWER PART EQS.    BAND WIDTH + 1 =   33
 STRESS PERIOD=  1 TIMESTEP=369 LAYER=  1 ZONE=  2 ACTIVE CELLS= 1210 NUMBER OF EQUATIONS=    1210
 SOLVING FOR ZETA FOR LAYER     2 ZONE     2

     541 UPPER PART EQS.       540 LOWER PART EQS.    BAND WIDTH + 1 =   32
 STRESS PERIOD=  1 TIMESTEP=369 LAYER=  2 ZONE=  2 ACTIVE CELLS= 1081 NUMBER OF EQUATIONS=    1081

 SOLVING FOR HEAD 

 NO OUTPUT CONTROL FOR STRESS PERIOD    1   TIME STEP  370
 SOLVING FOR ZETA FOR LAYER     1 ZONE     2

     616 UPPER PART EQS.       606 LOWER PART EQS.    BAND WIDTH + 1 =   33
 STRESS PERIOD=  1 TIMESTEP=370 LAYER=  1 ZONE=  2 ACTIVE CELLS= 1222 NUMBER OF EQUATIONS=    1222
 SOLVING FOR ZETA FOR LAYER     2 ZONE     2

     541 UPPER PART EQS.       540 LOWER PART EQS.    BAND WIDTH + 1 =   32
 STRESS PERIOD=  1 TIMESTEP=370 LAYER=  2 ZONE=  2 ACTIVE CELLS= 1081 NUMBER OF EQUATIONS=    1081

 SOLVING FOR HEAD 

 NO OUTPUT CONTROL FOR STRESS PERIOD    1   TIME STEP  371
 SOLVING FOR ZETA FOR LAYER     1 ZONE     2

     610 UPPER PART EQS.       598 LOWER PART EQS.    BAND WIDTH + 1 =   31
 STRESS PERIOD=  1 TIMESTEP=371 LAYER=  1 ZONE=  2 ACTIVE CELLS= 1208 NUMBER OF EQUATIONS=    1208
 SOLVING FOR ZETA FOR LAYER     2 ZONE     2

     541 UPPER PART EQS.       540 LOWER PART EQS.    BAND WIDTH + 1 =   32
 STRESS PERIOD=  1 TIMESTEP=371 LAYER=  2 ZONE=  2 ACTIVE CELLS= 1081 NUMBER OF EQUATIONS=    1081

 SOLVING FOR HEAD 

 NO OUTPUT CONTROL FOR STRESS PERIOD    1   TIME STEP  372
 SOLVING FOR ZETA FOR LAYER     1 ZONE     2

     608 UPPER PART EQS.       614 LOWER PART EQS.    BAND WIDTH + 1 =   31
 STRESS PERIOD=  1 TIMESTEP=372 LAYER=  1 ZONE=  2 ACTIVE CELLS= 1222 NUMBER OF EQUATIONS=    1222
 SOLVING FOR ZETA FOR LAYER     2 ZONE     2

     541 UPPER PART EQS.       540 LOWER PART EQS.    BAND WIDTH + 1 =   32
 STRESS PERIOD=  1 TIMESTEP=372 LAYER=  2 ZONE=  2 ACTIVE CELLS= 1081 NUMBER OF EQUATIONS=    1081

 SOLVING FOR HEAD 

 NO OUTPUT CONTROL FOR STRESS PERIOD    1   TIME STEP  373
 SOLVING FOR ZETA FOR LAYER     1 ZONE     2

     596 UPPER PART EQS.       590 LOWER PART EQS.    BAND WIDTH + 1 =   25
 STRESS PERIOD=  1 TIMESTEP=373 LAYER=  1 ZONE=  2 ACTIVE CELLS= 1186 NUMBER OF EQUATIONS=    1186
 SOLVING FOR ZETA FOR LAYER     2 ZONE     2

     541 UPPER PART EQS.       540 LOWER PART EQS.    BAND WIDTH + 1 =   32
 STRESS PERIOD=  1 TIMESTEP=373 LAYER=  2 ZONE=  2 ACTIVE CELLS= 1081 NUMBER OF EQUATIONS=    1081

 SOLVING FOR HEAD 

 NO OUTPUT CONTROL FOR STRESS PERIOD    1   TIME STEP  374
 SOLVING FOR ZETA FOR LAYER     1 ZONE     2

     616 UPPER PART EQS.       614 LOWER PART EQS.    BAND WIDTH + 1 =   25
 STRESS PERIOD=  1 TIMESTEP=374 LAYER=  1 ZONE=  2 ACTIVE CELLS= 1230 NUMBER OF EQUATIONS=    1230
 SOLVING FOR ZETA FOR LAYER     2 ZONE     2

     541 UPPER PART EQS.       544 LOWER PART EQS.    BAND WIDTH + 1 =   32
 STRESS PERIOD=  1 TIMESTEP=374 LAYER=  2 ZONE=  2 ACTIVE CELLS= 1085 NUMBER OF EQUATIONS=    1085

 SOLVING FOR HEAD 

 NO OUTPUT CONTROL FOR STRESS PERIOD    1   TIME STEP  375
 SOLVING FOR ZETA FOR LAYER     1 ZONE     2

     594 UPPER PART EQS.       598 LOWER PART EQS.    BAND WIDTH + 1 =   29
 STRESS PERIOD=  1 TIMESTEP=375 LAYER=  1 ZONE=  2 ACTIVE CELLS= 1192 NUMBER OF EQUATIONS=    1192
 SOLVING FOR ZETA FOR LAYER     2 ZONE     2

     541 UPPER PART EQS.       546 LOWER PART EQS.    BAND WIDTH + 1 =   33
 STRESS PERIOD=  1 TIMESTEP=375 LAYER=  2 ZONE=  2 ACTIVE CELLS= 1087 NUMBER OF EQUATIONS=    1087

 SOLVING FOR HEAD 

 NO OUTPUT CONTROL FOR STRESS PERIOD    1   TIME STEP  376
 SOLVING FOR ZETA FOR LAYER     1 ZONE     2

     608 UPPER PART EQS.       604 LOWER PART EQS.    BAND WIDTH + 1 =   27
 STRESS PERIOD=  1 TIMESTEP=376 LAYER=  1 ZONE=  2 ACTIVE CELLS= 1212 NUMBER OF EQUATIONS=    1212
 SOLVING FOR ZETA FOR LAYER     2 ZONE     2

     541 UPPER PART EQS.       548 LOWER PART EQS.    BAND WIDTH + 1 =   34
 STRESS PERIOD=  1 TIMESTEP=376 LAYER=  2 ZONE=  2 ACTIVE CELLS= 1089 NUMBER OF EQUATIONS=    1089

 SOLVING FOR HEAD 

 NO OUTPUT CONTROL FOR STRESS PERIOD    1   TIME STEP  377
 SOLVING FOR ZETA FOR LAYER     1 ZONE     2

     598 UPPER PART EQS.       588 LOWER PART EQS.    BAND WIDTH + 1 =   29
 STRESS PERIOD=  1 TIMESTEP=377 LAYER=  1 ZONE=  2 ACTIVE CELLS= 1186 NUMBER OF EQUATIONS=    1186
 SOLVING FOR ZETA FOR LAYER     2 ZONE     2

     541 UPPER PART EQS.       548 LOWER PART EQS.    BAND WIDTH + 1 =   34
 STRESS PERIOD=  1 TIMESTEP=377 LAYER=  2 ZONE=  2 ACTIVE CELLS= 1089 NUMBER OF EQUATIONS=    1089

 SOLVING FOR HEAD 

 NO OUTPUT CONTROL FOR STRESS PERIOD    1   TIME STEP  378
 SOLVING FOR ZETA FOR LAYER     1 ZONE     2

     606 UPPER PART EQS.       610 LOWER PART EQS.    BAND WIDTH + 1 =   29
 STRESS PERIOD=  1 TIMESTEP=378 LAYER=  1 ZONE=  2 ACTIVE CELLS= 1216 NUMBER OF EQUATIONS=    1216
 SOLVING FOR ZETA FOR LAYER     2 ZONE     2

     541 UPPER PART EQS.       548 LOWER PART EQS.    BAND WIDTH + 1 =   34
 STRESS PERIOD=  1 TIMESTEP=378 LAYER=  2 ZONE=  2 ACTIVE CELLS= 1089 NUMBER OF EQUATIONS=    1089

 SOLVING FOR HEAD 

 NO OUTPUT CONTROL FOR STRESS PERIOD    1   TIME STEP  379
 SOLVING FOR ZETA FOR LAYER     1 ZONE     2

     596 UPPER PART EQS.       582 LOWER PART EQS.    BAND WIDTH + 1 =   33
 STRESS PERIOD=  1 TIMESTEP=379 LAYER=  1 ZONE=  2 ACTIVE CELLS= 1178 NUMBER OF EQUATIONS=    1178
 SOLVING FOR ZETA FOR LAYER     2 ZONE     2

     541 UPPER PART EQS.       548 LOWER PART EQS.    BAND WIDTH + 1 =   34
 STRESS PERIOD=  1 TIMESTEP=379 LAYER=  2 ZONE=  2 ACTIVE CELLS= 1089 NUMBER OF EQUATIONS=    1089

 SOLVING FOR HEAD 

 NO OUTPUT CONTROL FOR STRESS PERIOD    1   TIME STEP  380
 SOLVING FOR ZETA FOR LAYER     1 ZONE     2

     612 UPPER PART EQS.       608 LOWER PART EQS.    BAND WIDTH + 1 =   27
 STRESS PERIOD=  1 TIMESTEP=380 LAYER=  1 ZONE=  2 ACTIVE CELLS= 1220 NUMBER OF EQUATIONS=    1220
 SOLVING FOR ZETA FOR LAYER     2 ZONE     2

     541 UPPER PART EQS.       548 LOWER PART EQS.    BAND WIDTH + 1 =   34
 STRESS PERIOD=  1 TIMESTEP=380 LAYER=  2 ZONE=  2 ACTIVE CELLS= 1089 NUMBER OF EQUATIONS=    1089

 SOLVING FOR HEAD 

 NO OUTPUT CONTROL FOR STRESS PERIOD    1   TIME STEP  381
 SOLVING FOR ZETA FOR LAYER     1 ZONE     2

     592 UPPER PART EQS.       590 LOWER PART EQS.    BAND WIDTH + 1 =   24
 STRESS PERIOD=  1 TIMESTEP=381 LAYER=  1 ZONE=  2 ACTIVE CELLS= 1182 NUMBER OF EQUATIONS=    1182
 SOLVING FOR ZETA FOR LAYER     2 ZONE     2

     541 UPPER PART EQS.       548 LOWER PART EQS.    BAND WIDTH + 1 =   34
 STRESS PERIOD=  1 TIMESTEP=381 LAYER=  2 ZONE=  2 ACTIVE CELLS= 1089 NUMBER OF EQUATIONS=    1089

 SOLVING FOR HEAD 

 NO OUTPUT CONTROL FOR STRESS PERIOD    1   TIME STEP  382
 SOLVING FOR ZETA FOR LAYER     1 ZONE     2

     608 UPPER PART EQS.       602 LOWER PART EQS.    BAND WIDTH + 1 =   29
 STRESS PERIOD=  1 TIMESTEP=382 LAYER=  1 ZONE=  2 ACTIVE CELLS= 1210 NUMBER OF EQUATIONS=    1210
 SOLVING FOR ZETA FOR LAYER     2 ZONE     2

     541 UPPER PART EQS.       548 LOWER PART EQS.    BAND WIDTH + 1 =   34
 STRESS PERIOD=  1 TIMESTEP=382 LAYER=  2 ZONE=  2 ACTIVE CELLS= 1089 NUMBER OF EQUATIONS=    1089

 SOLVING FOR HEAD 

 NO OUTPUT CONTROL FOR STRESS PERIOD    1   TIME STEP  383
 SOLVING FOR ZETA FOR LAYER     1 ZONE     2

     600 UPPER PART EQS.       588 LOWER PART EQS.    BAND WIDTH + 1 =   31
 STRESS PERIOD=  1 TIMESTEP=383 LAYER=  1 ZONE=  2 ACTIVE CELLS= 1188 NUMBER OF EQUATIONS=    1188
 SOLVING FOR ZETA FOR LAYER     2 ZONE     2

     541 UPPER PART EQS.       548 LOWER PART EQS.    BAND WIDTH + 1 =   34
 STRESS PERIOD=  1 TIMESTEP=383 LAYER=  2 ZONE=  2 ACTIVE CELLS= 1089 NUMBER OF EQUATIONS=    1089

 SOLVING FOR HEAD 

 NO OUTPUT CONTROL FOR STRESS PERIOD    1   TIME STEP  384
 SOLVING FOR ZETA FOR LAYER     1 ZONE     2

     606 UPPER PART EQS.       610 LOWER PART EQS.    BAND WIDTH + 1 =   29
 STRESS PERIOD=  1 TIMESTEP=384 LAYER=  1 ZONE=  2 ACTIVE CELLS= 1216 NUMBER OF EQUATIONS=    1216
 SOLVING FOR ZETA FOR LAYER     2 ZONE     2

     541 UPPER PART EQS.       548 LOWER PART EQS.    BAND WIDTH + 1 =   34
 STRESS PERIOD=  1 TIMESTEP=384 LAYER=  2 ZONE=  2 ACTIVE CELLS= 1089 NUMBER OF EQUATIONS=    1089

 SOLVING FOR HEAD 

 NO OUTPUT CONTROL FOR STRESS PERIOD    1   TIME STEP  385
 SOLVING FOR ZETA FOR LAYER     1 ZONE     2

     590 UPPER PART EQS.       582 LOWER PART EQS.    BAND WIDTH + 1 =   27
 STRESS PERIOD=  1 TIMESTEP=385 LAYER=  1 ZONE=  2 ACTIVE CELLS= 1172 NUMBER OF EQUATIONS=    1172
 SOLVING FOR ZETA FOR LAYER     2 ZONE     2

     541 UPPER PART EQS.       548 LOWER PART EQS.    BAND WIDTH + 1 =   34
 STRESS PERIOD=  1 TIMESTEP=385 LAYER=  2 ZONE=  2 ACTIVE CELLS= 1089 NUMBER OF EQUATIONS=    1089

 SOLVING FOR HEAD 

 NO OUTPUT CONTROL FOR STRESS PERIOD    1   TIME STEP  386
 SOLVING FOR ZETA FOR LAYER     1 ZONE     2

     614 UPPER PART EQS.       604 LOWER PART EQS.    BAND WIDTH + 1 =   33
 STRESS PERIOD=  1 TIMESTEP=386 LAYER=  1 ZONE=  2 ACTIVE CELLS= 1218 NUMBER OF EQUATIONS=    1218
 SOLVING FOR ZETA FOR LAYER     2 ZONE     2

     541 UPPER PART EQS.       548 LOWER PART EQS.    BAND WIDTH + 1 =   34
 STRESS PERIOD=  1 TIMESTEP=386 LAYER=  2 ZONE=  2 ACTIVE CELLS= 1089 NUMBER OF EQUATIONS=    1089

 SOLVING FOR HEAD 

 NO OUTPUT CONTROL FOR STRESS PERIOD    1   TIME STEP  387
 SOLVING FOR ZETA FOR LAYER     1 ZONE     2

     592 UPPER PART EQS.       586 LOWER PART EQS.    BAND WIDTH + 1 =   26
 STRESS PERIOD=  1 TIMESTEP=387 LAYER=  1 ZONE=  2 ACTIVE CELLS= 1178 NUMBER OF EQUATIONS=    1178
 SOLVING FOR ZETA FOR LAYER     2 ZONE     2

     541 UPPER PART EQS.       548 LOWER PART EQS.    BAND WIDTH + 1 =   34
 STRESS PERIOD=  1 TIMESTEP=387 LAYER=  2 ZONE=  2 ACTIVE CELLS= 1089 NUMBER OF EQUATIONS=    1089

 SOLVING FOR HEAD 

 NO OUTPUT CONTROL FOR STRESS PERIOD    1   TIME STEP  388
 SOLVING FOR ZETA FOR LAYER     1 ZONE     2

     604 UPPER PART EQS.       602 LOWER PART EQS.    BAND WIDTH + 1 =   25
 STRESS PERIOD=  1 TIMESTEP=388 LAYER=  1 ZONE=  2 ACTIVE CELLS= 1206 NUMBER OF EQUATIONS=    1206
 SOLVING FOR ZETA FOR LAYER     2 ZONE     2

     541 UPPER PART EQS.       548 LOWER PART EQS.    BAND WIDTH + 1 =   34
 STRESS PERIOD=  1 TIMESTEP=388 LAYER=  2 ZONE=  2 ACTIVE CELLS= 1089 NUMBER OF EQUATIONS=    1089

 SOLVING FOR HEAD 

 NO OUTPUT CONTROL FOR STRESS PERIOD    1   TIME STEP  389
 SOLVING FOR ZETA FOR LAYER     1 ZONE     2

     600 UPPER PART EQS.       584 LOWER PART EQS.    BAND WIDTH + 1 =   35
 STRESS PERIOD=  1 TIMESTEP=389 LAYER=  1 ZONE=  2 ACTIVE CELLS= 1184 NUMBER OF EQUATIONS=    1184
 SOLVING FOR ZETA FOR LAYER     2 ZONE     2

     541 UPPER PART EQS.       548 LOWER PART EQS.    BAND WIDTH + 1 =   34
 STRESS PERIOD=  1 TIMESTEP=389 LAYER=  2 ZONE=  2 ACTIVE CELLS= 1089 NUMBER OF EQUATIONS=    1089

 SOLVING FOR HEAD 

 NO OUTPUT CONTROL FOR STRESS PERIOD    1   TIME STEP  390
 SOLVING FOR ZETA FOR LAYER     1 ZONE     2

     602 UPPER PART EQS.       606 LOWER PART EQS.    BAND WIDTH + 1 =   27
 STRESS PERIOD=  1 TIMESTEP=390 LAYER=  1 ZONE=  2 ACTIVE CELLS= 1208 NUMBER OF EQUATIONS=    1208
 SOLVING FOR ZETA FOR LAYER     2 ZONE     2

     541 UPPER PART EQS.       548 LOWER PART EQS.    BAND WIDTH + 1 =   34
 STRESS PERIOD=  1 TIMESTEP=390 LAYER=  2 ZONE=  2 ACTIVE CELLS= 1089 NUMBER OF EQUATIONS=    1089

 SOLVING FOR HEAD 

 NO OUTPUT CONTROL FOR STRESS PERIOD    1   TIME STEP  391
 SOLVING FOR ZETA FOR LAYER     1 ZONE     2

     590 UPPER PART EQS.       580 LOWER PART EQS.    BAND WIDTH + 1 =   29
 STRESS PERIOD=  1 TIMESTEP=391 LAYER=  1 ZONE=  2 ACTIVE CELLS= 1170 NUMBER OF EQUATIONS=    1170
 SOLVING FOR ZETA FOR LAYER     2 ZONE     2

     541 UPPER PART EQS.       550 LOWER PART EQS.    BAND WIDTH + 1 =   34
 STRESS PERIOD=  1 TIMESTEP=391 LAYER=  2 ZONE=  2 ACTIVE CELLS= 1091 NUMBER OF EQUATIONS=    1091

 SOLVING FOR HEAD 

 NO OUTPUT CONTROL FOR STRESS PERIOD    1   TIME STEP  392
 SOLVING FOR ZETA FOR LAYER     1 ZONE     2

     618 UPPER PART EQS.       606 LOWER PART EQS.    BAND WIDTH + 1 =   35
 STRESS PERIOD=  1 TIMESTEP=392 LAYER=  1 ZONE=  2 ACTIVE CELLS= 1224 NUMBER OF EQUATIONS=    1224
 SOLVING FOR ZETA FOR LAYER     2 ZONE     2

     541 UPPER PART EQS.       550 LOWER PART EQS.    BAND WIDTH + 1 =   34
 STRESS PERIOD=  1 TIMESTEP=392 LAYER=  2 ZONE=  2 ACTIVE CELLS= 1091 NUMBER OF EQUATIONS=    1091

 SOLVING FOR HEAD 

 NO OUTPUT CONTROL FOR STRESS PERIOD    1   TIME STEP  393
 SOLVING FOR ZETA FOR LAYER     1 ZONE     2

     582 UPPER PART EQS.       586 LOWER PART EQS.    BAND WIDTH + 1 =   27
 STRESS PERIOD=  1 TIMESTEP=393 LAYER=  1 ZONE=  2 ACTIVE CELLS= 1168 NUMBER OF EQUATIONS=    1168
 SOLVING FOR ZETA FOR LAYER     2 ZONE     2

     541 UPPER PART EQS.       550 LOWER PART EQS.    BAND WIDTH + 1 =   34
 STRESS PERIOD=  1 TIMESTEP=393 LAYER=  2 ZONE=  2 ACTIVE CELLS= 1091 NUMBER OF EQUATIONS=    1091

 SOLVING FOR HEAD 

 NO OUTPUT CONTROL FOR STRESS PERIOD    1   TIME STEP  394
 SOLVING FOR ZETA FOR LAYER     1 ZONE     2

     612 UPPER PART EQS.       602 LOWER PART EQS.    BAND WIDTH + 1 =   33
 STRESS PERIOD=  1 TIMESTEP=394 LAYER=  1 ZONE=  2 ACTIVE CELLS= 1214 NUMBER OF EQUATIONS=    1214
 SOLVING FOR ZETA FOR LAYER     2 ZONE     2

     541 UPPER PART EQS.       556 LOWER PART EQS.    BAND WIDTH + 1 =   34
 STRESS PERIOD=  1 TIMESTEP=394 LAYER=  2 ZONE=  2 ACTIVE CELLS= 1097 NUMBER OF EQUATIONS=    1097

 SOLVING FOR HEAD 

 NO OUTPUT CONTROL FOR STRESS PERIOD    1   TIME STEP  395
 SOLVING FOR ZETA FOR LAYER     1 ZONE     2

     586 UPPER PART EQS.       584 LOWER PART EQS.    BAND WIDTH + 1 =   23
 STRESS PERIOD=  1 TIMESTEP=395 LAYER=  1 ZONE=  2 ACTIVE CELLS= 1170 NUMBER OF EQUATIONS=    1170
 SOLVING FOR ZETA FOR LAYER     2 ZONE     2

     541 UPPER PART EQS.       556 LOWER PART EQS.    BAND WIDTH + 1 =   34
 STRESS PERIOD=  1 TIMESTEP=395 LAYER=  2 ZONE=  2 ACTIVE CELLS= 1097 NUMBER OF EQUATIONS=    1097

 SOLVING FOR HEAD 

 NO OUTPUT CONTROL FOR STRESS PERIOD    1   TIME STEP  396
 SOLVING FOR ZETA FOR LAYER     1 ZONE     2

     598 UPPER PART EQS.       608 LOWER PART EQS.    BAND WIDTH + 1 =   33
 STRESS PERIOD=  1 TIMESTEP=396 LAYER=  1 ZONE=  2 ACTIVE CELLS= 1206 NUMBER OF EQUATIONS=    1206
 SOLVING FOR ZETA FOR LAYER     2 ZONE     2

     541 UPPER PART EQS.       556 LOWER PART EQS.    BAND WIDTH + 1 =   34
 STRESS PERIOD=  1 TIMESTEP=396 LAYER=  2 ZONE=  2 ACTIVE CELLS= 1097 NUMBER OF EQUATIONS=    1097

 SOLVING FOR HEAD 

 NO OUTPUT CONTROL FOR STRESS PERIOD    1   TIME STEP  397
 SOLVING FOR ZETA FOR LAYER     1 ZONE     2

     586 UPPER PART EQS.       578 LOWER PART EQS.    BAND WIDTH + 1 =   27
 STRESS PERIOD=  1 TIMESTEP=397 LAYER=  1 ZONE=  2 ACTIVE CELLS= 1164 NUMBER OF EQUATIONS=    1164
 SOLVING FOR ZETA FOR LAYER     2 ZONE     2

     541 UPPER PART EQS.       556 LOWER PART EQS.    BAND WIDTH + 1 =   34
 STRESS PERIOD=  1 TIMESTEP=397 LAYER=  2 ZONE=  2 ACTIVE CELLS= 1097 NUMBER OF EQUATIONS=    1097

 SOLVING FOR HEAD 

 NO OUTPUT CONTROL FOR STRESS PERIOD    1   TIME STEP  398
 SOLVING FOR ZETA FOR LAYER     1 ZONE     2

     610 UPPER PART EQS.       606 LOWER PART EQS.    BAND WIDTH + 1 =   27
 STRESS PERIOD=  1 TIMESTEP=398 LAYER=  1 ZONE=  2 ACTIVE CELLS= 1216 NUMBER OF EQUATIONS=    1216
 SOLVING FOR ZETA FOR LAYER     2 ZONE     2

     541 UPPER PART EQS.       556 LOWER PART EQS.    BAND WIDTH + 1 =   34
 STRESS PERIOD=  1 TIMESTEP=398 LAYER=  2 ZONE=  2 ACTIVE CELLS= 1097 NUMBER OF EQUATIONS=    1097

 SOLVING FOR HEAD 

 NO OUTPUT CONTROL FOR STRESS PERIOD    1   TIME STEP  399
 SOLVING FOR ZETA FOR LAYER     1 ZONE     2

     598 UPPER PART EQS.       616 LOWER PART EQS.    BAND WIDTH + 1 =   39
 STRESS PERIOD=  1 TIMESTEP=399 LAYER=  1 ZONE=  2 ACTIVE CELLS= 1214 NUMBER OF EQUATIONS=    1214
 SOLVING FOR ZETA FOR LAYER     2 ZONE     2

     541 UPPER PART EQS.       556 LOWER PART EQS.    BAND WIDTH + 1 =   34
 STRESS PERIOD=  1 TIMESTEP=399 LAYER=  2 ZONE=  2 ACTIVE CELLS= 1097 NUMBER OF EQUATIONS=    1097

 SOLVING FOR HEAD 

 OUTPUT CONTROL FOR STRESS PERIOD    1   TIME STEP  400
    PRINT BUDGET
    SAVE HEAD FOR ALL LAYERS
 SOLVING FOR ZETA FOR LAYER     1 ZONE     2

     586 UPPER PART EQS.       580 LOWER PART EQS.    BAND WIDTH + 1 =   27
 STRESS PERIOD=  1 TIMESTEP=400 LAYER=  1 ZONE=  2 ACTIVE CELLS= 1166 NUMBER OF EQUATIONS=    1166
 SOLVING FOR ZETA FOR LAYER     2 ZONE     2

     541 UPPER PART EQS.       556 LOWER PART EQS.    BAND WIDTH + 1 =   34
 STRESS PERIOD=  1 TIMESTEP=400 LAYER=  2 ZONE=  2 ACTIVE CELLS= 1097 NUMBER OF EQUATIONS=    1097
 UBUDSV SAVING "      ZETASRF  1" ON UNIT 55 AT TIME STEP400, STRESS PERIOD    1


                      VOLUMETRIC SWI ZONE BUDGET FOR ENTIRE MODEL
                     AT END OF TIME STEP  400 IN STRESS PERIOD   1
                                      ZONE     1
  -----------------------------------------------------------------------------------

        CUMULATIVE VOLUMES      L**3       RATES FOR THIS TIME STEP      L**3/T
        ------------------                 ------------------------

              IN:                                      IN:
              ---                                      ---
             BOUNDARIES =    49118812.0000            BOUNDARIES =        1681.0000
          CONSTANT HEAD =           0.0000         CONSTANT HEAD =           0.0000
            ZONE CHANGE =      268674.3125           ZONE CHANGE =           4.6593
       ZONE CHG TIP/TOE =      208530.9375      ZONE CHG TIP/TOE =          11.1271
            ZONE MIXING =           0.0000           ZONE MIXING =           0.0000

               TOTAL IN =    49596020.0000              TOTAL IN =        1696.7864

             OUT:                                     OUT:
             ----                                     ----
             BOUNDARIES =    33277240.0000            BOUNDARIES =        1539.4160
          CONSTANT HEAD =           0.0000         CONSTANT HEAD =           0.0000
            ZONE CHANGE =    16830958.0000           ZONE CHANGE =         146.7583
       ZONE CHG TIP/TOE =      214225.2812      ZONE CHG TIP/TOE =          11.1271
            ZONE MIXING =           0.0000           ZONE MIXING =           0.0000

              TOTAL OUT =    50322424.0000             TOTAL OUT =        1697.3014

               IN - OUT =     -726404.0000              IN - OUT =          -0.5150

    PERCENT DISCREPANCY =          -1.45     PERCENT DISCREPANCY =          -0.03



                      VOLUMETRIC SWI ZONE BUDGET FOR ENTIRE MODEL
                     AT END OF TIME STEP  400 IN STRESS PERIOD   1
                                      ZONE     2
  -----------------------------------------------------------------------------------

        CUMULATIVE VOLUMES      L**3       RATES FOR THIS TIME STEP      L**3/T
        ------------------                 ------------------------

              IN:                                      IN:
              ---                                      ---
             BOUNDARIES =           0.0000            BOUNDARIES =           0.0000
          CONSTANT HEAD =           0.0000         CONSTANT HEAD =           0.0000
            ZONE CHANGE =    16814764.0000           ZONE CHANGE =         146.4420
       ZONE CHG TIP/TOE =      945992.1250      ZONE CHG TIP/TOE =          11.6557
            ZONE MIXING =           0.0000           ZONE MIXING =           0.0000

               TOTAL IN =    17760756.0000              TOTAL IN =         158.0977

             OUT:                                     OUT:
             ----                                     ----
             BOUNDARIES =    15841581.0000            BOUNDARIES =         141.5840
          CONSTANT HEAD =           0.0000         CONSTANT HEAD =           0.0000
            ZONE CHANGE =     1000441.5000           ZONE CHANGE =           5.1880
       ZONE CHG TIP/TOE =      192332.2188      ZONE CHG TIP/TOE =          10.8108
            ZONE MIXING =           0.0000           ZONE MIXING =           0.0000

              TOTAL OUT =    17034354.0000             TOTAL OUT =         157.5828

               IN - OUT =      726402.0000              IN - OUT =           0.5149

    PERCENT DISCREPANCY =           4.18     PERCENT DISCREPANCY =           0.33


 HEAD WILL BE SAVED ON UNIT   51 AT END OF TIME STEP  400, STRESS PERIOD    1
1
  VOLUMETRIC BUDGET FOR ENTIRE MODEL AT END OF TIME STEP  400, STRESS PERIOD   1
  ------------------------------------------------------------------------------

     CUMULATIVE VOLUMES      L**3       RATES FOR THIS TIME STEP      L**3/T
     ------------------                 ------------------------

           IN:                                      IN:
           ---                                      ---
             STORAGE =           0.0000               STORAGE =           0.0000
       CONSTANT HEAD =           0.0000         CONSTANT HEAD =           0.0000
               WELLS =           0.0000                 WELLS =           0.0000
     HEAD DEP BOUNDS =           0.0000       HEAD DEP BOUNDS =           0.0000
            RECHARGE =    49118812.0000              RECHARGE =        1681.0000
          SWIADDTOCH =           0.0000            SWIADDTOCH =           0.0000

            TOTAL IN =    49118812.0000              TOTAL IN =        1681.0000

          OUT:                                     OUT:
          ----                                     ----
             STORAGE =           0.0000               STORAGE =           0.0000
       CONSTANT HEAD =           0.0000         CONSTANT HEAD =           0.0000
               WELLS =           0.0000                 WELLS =           0.0000
     HEAD DEP BOUNDS =    49118812.0000       HEAD DEP BOUNDS =        1681.0000
            RECHARGE =           0.0000              RECHARGE =           0.0000
          SWIADDTOCH =           0.0000            SWIADDTOCH =           0.0000

           TOTAL OUT =    49118812.0000             TOTAL OUT =        1681.0000

            IN - OUT =           0.0000              IN - OUT =           0.0000

 PERCENT DISCREPANCY =           0.00     PERCENT DISCREPANCY =           0.00






         TIME SUMMARY AT END OF TIME STEP  400 IN STRESS PERIOD    1
                    SECONDS     MINUTES      HOURS       DAYS        YEARS
                    -----------------------------------------------------------
   TIME STEP LENGTH 6.31152E+06 1.05192E+05  1753.2      73.050     0.20000    
 STRESS PERIOD TIME 2.52462E+09 4.20770E+07 7.01283E+05  29220.      80.000    
         TOTAL TIME 2.52462E+09 4.20770E+07 7.01283E+05  29220.      80.000    
1

 SOLVING FOR HEAD 

 NO OUTPUT CONTROL FOR STRESS PERIOD    1   TIME STEP  401
 SOLVING FOR ZETA FOR LAYER     1 ZONE     2

     628 UPPER PART EQS.       624 LOWER PART EQS.    BAND WIDTH + 1 =   26
 STRESS PERIOD=  1 TIMESTEP=401 LAYER=  1 ZONE=  2 ACTIVE CELLS= 1252 NUMBER OF EQUATIONS=    1252
 SOLVING FOR ZETA FOR LAYER     2 ZONE     2

     537 UPPER PART EQS.       556 LOWER PART EQS.    BAND WIDTH + 1 =   34
 STRESS PERIOD=  1 TIMESTEP=401 LAYER=  2 ZONE=  2 ACTIVE CELLS= 1093 NUMBER OF EQUATIONS=    1093

 SOLVING FOR HEAD 

 NO OUTPUT CONTROL FOR STRESS PERIOD    1   TIME STEP  402
 SOLVING FOR ZETA FOR LAYER     1 ZONE     2

     572 UPPER PART EQS.       580 LOWER PART EQS.    BAND WIDTH + 1 =   31
 STRESS PERIOD=  1 TIMESTEP=402 LAYER=  1 ZONE=  2 ACTIVE CELLS= 1152 NUMBER OF EQUATIONS=    1152
 SOLVING FOR ZETA FOR LAYER     2 ZONE     2

     541 UPPER PART EQS.       556 LOWER PART EQS.    BAND WIDTH + 1 =   34
 STRESS PERIOD=  1 TIMESTEP=402 LAYER=  2 ZONE=  2 ACTIVE CELLS= 1097 NUMBER OF EQUATIONS=    1097

 SOLVING FOR HEAD 

 NO OUTPUT CONTROL FOR STRESS PERIOD    1   TIME STEP  403
 SOLVING FOR ZETA FOR LAYER     1 ZONE     2

     602 UPPER PART EQS.       606 LOWER PART EQS.    BAND WIDTH + 1 =   25
 STRESS PERIOD=  1 TIMESTEP=403 LAYER=  1 ZONE=  2 ACTIVE CELLS= 1208 NUMBER OF EQUATIONS=    1208
 SOLVING FOR ZETA FOR LAYER     2 ZONE     2

     545 UPPER PART EQS.       556 LOWER PART EQS.    BAND WIDTH + 1 =   32
 STRESS PERIOD=  1 TIMESTEP=403 LAYER=  2 ZONE=  2 ACTIVE CELLS= 1101 NUMBER OF EQUATIONS=    1101

 SOLVING FOR HEAD 

 NO OUTPUT CONTROL FOR STRESS PERIOD    1   TIME STEP  404
 SOLVING FOR ZETA FOR LAYER     1 ZONE     2

     604 UPPER PART EQS.       602 LOWER PART EQS.    BAND WIDTH + 1 =   25
 STRESS PERIOD=  1 TIMESTEP=404 LAYER=  1 ZONE=  2 ACTIVE CELLS= 1206 NUMBER OF EQUATIONS=    1206
 SOLVING FOR ZETA FOR LAYER     2 ZONE     2

     545 UPPER PART EQS.       556 LOWER PART EQS.    BAND WIDTH + 1 =   32
 STRESS PERIOD=  1 TIMESTEP=404 LAYER=  2 ZONE=  2 ACTIVE CELLS= 1101 NUMBER OF EQUATIONS=    1101

 SOLVING FOR HEAD 

 NO OUTPUT CONTROL FOR STRESS PERIOD    1   TIME STEP  405
 SOLVING FOR ZETA FOR LAYER     1 ZONE     2

     596 UPPER PART EQS.       606 LOWER PART EQS.    BAND WIDTH + 1 =   33
 STRESS PERIOD=  1 TIMESTEP=405 LAYER=  1 ZONE=  2 ACTIVE CELLS= 1202 NUMBER OF EQUATIONS=    1202
 SOLVING FOR ZETA FOR LAYER     2 ZONE     2

     549 UPPER PART EQS.       556 LOWER PART EQS.    BAND WIDTH + 1 =   30
 STRESS PERIOD=  1 TIMESTEP=405 LAYER=  2 ZONE=  2 ACTIVE CELLS= 1105 NUMBER OF EQUATIONS=    1105

 SOLVING FOR HEAD 

 NO OUTPUT CONTROL FOR STRESS PERIOD    1   TIME STEP  406
 SOLVING FOR ZETA FOR LAYER     1 ZONE     2

     588 UPPER PART EQS.       584 LOWER PART EQS.    BAND WIDTH + 1 =   23
 STRESS PERIOD=  1 TIMESTEP=406 LAYER=  1 ZONE=  2 ACTIVE CELLS= 1172 NUMBER OF EQUATIONS=    1172
 SOLVING FOR ZETA FOR LAYER     2 ZONE     2

     549 UPPER PART EQS.       556 LOWER PART EQS.    BAND WIDTH + 1 =   30
 STRESS PERIOD=  1 TIMESTEP=406 LAYER=  2 ZONE=  2 ACTIVE CELLS= 1105 NUMBER OF EQUATIONS=    1105

 SOLVING FOR HEAD 

 NO OUTPUT CONTROL FOR STRESS PERIOD    1   TIME STEP  407
 SOLVING FOR ZETA FOR LAYER     1 ZONE     2

     618 UPPER PART EQS.       620 LOWER PART EQS.    BAND WIDTH + 1 =   27
 STRESS PERIOD=  1 TIMESTEP=407 LAYER=  1 ZONE=  2 ACTIVE CELLS= 1238 NUMBER OF EQUATIONS=    1238
 SOLVING FOR ZETA FOR LAYER     2 ZONE     2

     549 UPPER PART EQS.       556 LOWER PART EQS.    BAND WIDTH + 1 =   30
 STRESS PERIOD=  1 TIMESTEP=407 LAYER=  2 ZONE=  2 ACTIVE CELLS= 1105 NUMBER OF EQUATIONS=    1105

 SOLVING FOR HEAD 

 NO OUTPUT CONTROL FOR STRESS PERIOD    1   TIME STEP  408
 SOLVING FOR ZETA FOR LAYER     1 ZONE     2

     596 UPPER PART EQS.       606 LOWER PART EQS.    BAND WIDTH + 1 =   33
 STRESS PERIOD=  1 TIMESTEP=408 LAYER=  1 ZONE=  2 ACTIVE CELLS= 1202 NUMBER OF EQUATIONS=    1202
 SOLVING FOR ZETA FOR LAYER     2 ZONE     2

     549 UPPER PART EQS.       556 LOWER PART EQS.    BAND WIDTH + 1 =   30
 STRESS PERIOD=  1 TIMESTEP=408 LAYER=  2 ZONE=  2 ACTIVE CELLS= 1105 NUMBER OF EQUATIONS=    1105

 SOLVING FOR HEAD 

 NO OUTPUT CONTROL FOR STRESS PERIOD    1   TIME STEP  409
 SOLVING FOR ZETA FOR LAYER     1 ZONE     2

     588 UPPER PART EQS.       588 LOWER PART EQS.    BAND WIDTH + 1 =   23
 STRESS PERIOD=  1 TIMESTEP=409 LAYER=  1 ZONE=  2 ACTIVE CELLS= 1176 NUMBER OF EQUATIONS=    1176
 SOLVING FOR ZETA FOR LAYER     2 ZONE     2

     549 UPPER PART EQS.       556 LOWER PART EQS.    BAND WIDTH + 1 =   30
 STRESS PERIOD=  1 TIMESTEP=409 LAYER=  2 ZONE=  2 ACTIVE CELLS= 1105 NUMBER OF EQUATIONS=    1105

 SOLVING FOR HEAD 

 NO OUTPUT CONTROL FOR STRESS PERIOD    1   TIME STEP  410
 SOLVING FOR ZETA FOR LAYER     1 ZONE     2

     618 UPPER PART EQS.       608 LOWER PART EQS.    BAND WIDTH + 1 =   33
 STRESS PERIOD=  1 TIMESTEP=410 LAYER=  1 ZONE=  2 ACTIVE CELLS= 1226 NUMBER OF EQUATIONS=    1226
 SOLVING FOR ZETA FOR LAYER     2 ZONE     2

     549 UPPER PART EQS.       556 LOWER PART EQS.    BAND WIDTH + 1 =   30
 STRESS PERIOD=  1 TIMESTEP=410 LAYER=  2 ZONE=  2 ACTIVE CELLS= 1105 NUMBER OF EQUATIONS=    1105

 SOLVING FOR HEAD 

 NO OUTPUT CONTROL FOR STRESS PERIOD    1   TIME STEP  411
 SOLVING FOR ZETA FOR LAYER     1 ZONE     2

     596 UPPER PART EQS.       602 LOWER PART EQS.    BAND WIDTH + 1 =   29
 STRESS PERIOD=  1 TIMESTEP=411 LAYER=  1 ZONE=  2 ACTIVE CELLS= 1198 NUMBER OF EQUATIONS=    1198
 SOLVING FOR ZETA FOR LAYER     2 ZONE     2

     549 UPPER PART EQS.       556 LOWER PART EQS.    BAND WIDTH + 1 =   30
 STRESS PERIOD=  1 TIMESTEP=411 LAYER=  2 ZONE=  2 ACTIVE CELLS= 1105 NUMBER OF EQUATIONS=    1105

 SOLVING FOR HEAD 

 NO OUTPUT CONTROL FOR STRESS PERIOD    1   TIME STEP  412
 SOLVING FOR ZETA FOR LAYER     1 ZONE     2

     590 UPPER PART EQS.       580 LOWER PART EQS.    BAND WIDTH + 1 =   29
 STRESS PERIOD=  1 TIMESTEP=412 LAYER=  1 ZONE=  2 ACTIVE CELLS= 1170 NUMBER OF EQUATIONS=    1170
 SOLVING FOR ZETA FOR LAYER     2 ZONE     2

     549 UPPER PART EQS.       556 LOWER PART EQS.    BAND WIDTH + 1 =   30
 STRESS PERIOD=  1 TIMESTEP=412 LAYER=  2 ZONE=  2 ACTIVE CELLS= 1105 NUMBER OF EQUATIONS=    1105

 SOLVING FOR HEAD 

 NO OUTPUT CONTROL FOR STRESS PERIOD    1   TIME STEP  413
 SOLVING FOR ZETA FOR LAYER     1 ZONE     2

     616 UPPER PART EQS.       612 LOWER PART EQS.    BAND WIDTH + 1 =   28
 STRESS PERIOD=  1 TIMESTEP=413 LAYER=  1 ZONE=  2 ACTIVE CELLS= 1228 NUMBER OF EQUATIONS=    1228
 SOLVING FOR ZETA FOR LAYER     2 ZONE     2

     549 UPPER PART EQS.       552 LOWER PART EQS.    BAND WIDTH + 1 =   30
 STRESS PERIOD=  1 TIMESTEP=413 LAYER=  2 ZONE=  2 ACTIVE CELLS= 1101 NUMBER OF EQUATIONS=    1101

 SOLVING FOR HEAD 

 NO OUTPUT CONTROL FOR STRESS PERIOD    1   TIME STEP  414
 SOLVING FOR ZETA FOR LAYER     1 ZONE     2

     596 UPPER PART EQS.       598 LOWER PART EQS.    BAND WIDTH + 1 =   25
 STRESS PERIOD=  1 TIMESTEP=414 LAYER=  1 ZONE=  2 ACTIVE CELLS= 1194 NUMBER OF EQUATIONS=    1194
 SOLVING FOR ZETA FOR LAYER     2 ZONE     2

     553 UPPER PART EQS.       556 LOWER PART EQS.    BAND WIDTH + 1 =   32
 STRESS PERIOD=  1 TIMESTEP=414 LAYER=  2 ZONE=  2 ACTIVE CELLS= 1109 NUMBER OF EQUATIONS=    1109

 SOLVING FOR HEAD 

 NO OUTPUT CONTROL FOR STRESS PERIOD    1   TIME STEP  415
 SOLVING FOR ZETA FOR LAYER     1 ZONE     2

     590 UPPER PART EQS.       584 LOWER PART EQS.    BAND WIDTH + 1 =   25
 STRESS PERIOD=  1 TIMESTEP=415 LAYER=  1 ZONE=  2 ACTIVE CELLS= 1174 NUMBER OF EQUATIONS=    1174
 SOLVING FOR ZETA FOR LAYER     2 ZONE     2

     553 UPPER PART EQS.       556 LOWER PART EQS.    BAND WIDTH + 1 =   32
 STRESS PERIOD=  1 TIMESTEP=415 LAYER=  2 ZONE=  2 ACTIVE CELLS= 1109 NUMBER OF EQUATIONS=    1109

 SOLVING FOR HEAD 

 NO OUTPUT CONTROL FOR STRESS PERIOD    1   TIME STEP  416
 SOLVING FOR ZETA FOR LAYER     1 ZONE     2

     616 UPPER PART EQS.       608 LOWER PART EQS.    BAND WIDTH + 1 =   31
 STRESS PERIOD=  1 TIMESTEP=416 LAYER=  1 ZONE=  2 ACTIVE CELLS= 1224 NUMBER OF EQUATIONS=    1224
 SOLVING FOR ZETA FOR LAYER     2 ZONE     2

     553 UPPER PART EQS.       556 LOWER PART EQS.    BAND WIDTH + 1 =   32
 STRESS PERIOD=  1 TIMESTEP=416 LAYER=  2 ZONE=  2 ACTIVE CELLS= 1109 NUMBER OF EQUATIONS=    1109

 SOLVING FOR HEAD 

 NO OUTPUT CONTROL FOR STRESS PERIOD    1   TIME STEP  417
 SOLVING FOR ZETA FOR LAYER     1 ZONE     2

     596 UPPER PART EQS.       602 LOWER PART EQS.    BAND WIDTH + 1 =   29
 STRESS PERIOD=  1 TIMESTEP=417 LAYER=  1 ZONE=  2 ACTIVE CELLS= 1198 NUMBER OF EQUATIONS=    1198
 SOLVING FOR ZETA FOR LAYER     2 ZONE     2

     553 UPPER PART EQS.       554 LOWER PART EQS.    BAND WIDTH + 1 =   32
 STRESS PERIOD=  1 TIMESTEP=417 LAYER=  2 ZONE=  2 ACTIVE CELLS= 1107 NUMBER OF EQUATIONS=    1107

 SOLVING FOR HEAD 

 NO OUTPUT CONTROL FOR STRESS PERIOD    1   TIME STEP  418
 SOLVING FOR ZETA FOR LAYER     1 ZONE     2

     590 UPPER PART EQS.       580 LOWER PART EQS.    BAND WIDTH + 1 =   29
 STRESS PERIOD=  1 TIMESTEP=418 LAYER=  1 ZONE=  2 ACTIVE CELLS= 1170 NUMBER OF EQUATIONS=    1170
 SOLVING FOR ZETA FOR LAYER     2 ZONE     2

     553 UPPER PART EQS.       556 LOWER PART EQS.    BAND WIDTH + 1 =   32
 STRESS PERIOD=  1 TIMESTEP=418 LAYER=  2 ZONE=  2 ACTIVE CELLS= 1109 NUMBER OF EQUATIONS=    1109

 SOLVING FOR HEAD 

 NO OUTPUT CONTROL FOR STRESS PERIOD    1   TIME STEP  419
 SOLVING FOR ZETA FOR LAYER     1 ZONE     2

     616 UPPER PART EQS.       612 LOWER PART EQS.    BAND WIDTH + 1 =   28
 STRESS PERIOD=  1 TIMESTEP=419 LAYER=  1 ZONE=  2 ACTIVE CELLS= 1228 NUMBER OF EQUATIONS=    1228
 SOLVING FOR ZETA FOR LAYER     2 ZONE     2

     553 UPPER PART EQS.       556 LOWER PART EQS.    BAND WIDTH + 1 =   32
 STRESS PERIOD=  1 TIMESTEP=419 LAYER=  2 ZONE=  2 ACTIVE CELLS= 1109 NUMBER OF EQUATIONS=    1109

 SOLVING FOR HEAD 

 NO OUTPUT CONTROL FOR STRESS PERIOD    1   TIME STEP  420
 SOLVING FOR ZETA FOR LAYER     1 ZONE     2

     596 UPPER PART EQS.       598 LOWER PART EQS.    BAND WIDTH + 1 =   25
 STRESS PERIOD=  1 TIMESTEP=420 LAYER=  1 ZONE=  2 ACTIVE CELLS= 1194 NUMBER OF EQUATIONS=    1194
 SOLVING FOR ZETA FOR LAYER     2 ZONE     2

     553 UPPER PART EQS.       556 LOWER PART EQS.    BAND WIDTH + 1 =   32
 STRESS PERIOD=  1 TIMESTEP=420 LAYER=  2 ZONE=  2 ACTIVE CELLS= 1109 NUMBER OF EQUATIONS=    1109

 SOLVING FOR HEAD 

 NO OUTPUT CONTROL FOR STRESS PERIOD    1   TIME STEP  421
 SOLVING FOR ZETA FOR LAYER     1 ZONE     2

     590 UPPER PART EQS.       588 LOWER PART EQS.    BAND WIDTH + 1 =   24
 STRESS PERIOD=  1 TIMESTEP=421 LAYER=  1 ZONE=  2 ACTIVE CELLS= 1178 NUMBER OF EQUATIONS=    1178
 SOLVING FOR ZETA FOR LAYER     2 ZONE     2

     553 UPPER PART EQS.       556 LOWER PART EQS.    BAND WIDTH + 1 =   32
 STRESS PERIOD=  1 TIMESTEP=421 LAYER=  2 ZONE=  2 ACTIVE CELLS= 1109 NUMBER OF EQUATIONS=    1109

 SOLVING FOR HEAD 

 NO OUTPUT CONTROL FOR STRESS PERIOD    1   TIME STEP  422
 SOLVING FOR ZETA FOR LAYER     1 ZONE     2

     616 UPPER PART EQS.       598 LOWER PART EQS.    BAND WIDTH + 1 =   41
 STRESS PERIOD=  1 TIMESTEP=422 LAYER=  1 ZONE=  2 ACTIVE CELLS= 1214 NUMBER OF EQUATIONS=    1214
 SOLVING FOR ZETA FOR LAYER     2 ZONE     2

     553 UPPER PART EQS.       556 LOWER PART EQS.    BAND WIDTH + 1 =   32
 STRESS PERIOD=  1 TIMESTEP=422 LAYER=  2 ZONE=  2 ACTIVE CELLS= 1109 NUMBER OF EQUATIONS=    1109

 SOLVING FOR HEAD 

 NO OUTPUT CONTROL FOR STRESS PERIOD    1   TIME STEP  423
 SOLVING FOR ZETA FOR LAYER     1 ZONE     2

     594 UPPER PART EQS.       594 LOWER PART EQS.    BAND WIDTH + 1 =   23
 STRESS PERIOD=  1 TIMESTEP=423 LAYER=  1 ZONE=  2 ACTIVE CELLS= 1188 NUMBER OF EQUATIONS=    1188
 SOLVING FOR ZETA FOR LAYER     2 ZONE     2

     553 UPPER PART EQS.       556 LOWER PART EQS.    BAND WIDTH + 1 =   32
 STRESS PERIOD=  1 TIMESTEP=423 LAYER=  2 ZONE=  2 ACTIVE CELLS= 1109 NUMBER OF EQUATIONS=    1109

 SOLVING FOR HEAD 

 NO OUTPUT CONTROL FOR STRESS PERIOD    1   TIME STEP  424
 SOLVING FOR ZETA FOR LAYER     1 ZONE     2

     592 UPPER PART EQS.       582 LOWER PART EQS.    BAND WIDTH + 1 =   29
 STRESS PERIOD=  1 TIMESTEP=424 LAYER=  1 ZONE=  2 ACTIVE CELLS= 1174 NUMBER OF EQUATIONS=    1174
 SOLVING FOR ZETA FOR LAYER     2 ZONE     2

     553 UPPER PART EQS.       556 LOWER PART EQS.    BAND WIDTH + 1 =   32
 STRESS PERIOD=  1 TIMESTEP=424 LAYER=  2 ZONE=  2 ACTIVE CELLS= 1109 NUMBER OF EQUATIONS=    1109

 SOLVING FOR HEAD 

 NO OUTPUT CONTROL FOR STRESS PERIOD    1   TIME STEP  425
 SOLVING FOR ZETA FOR LAYER     1 ZONE     2

     604 UPPER PART EQS.       594 LOWER PART EQS.    BAND WIDTH + 1 =   33
 STRESS PERIOD=  1 TIMESTEP=425 LAYER=  1 ZONE=  2 ACTIVE CELLS= 1198 NUMBER OF EQUATIONS=    1198
 SOLVING FOR ZETA FOR LAYER     2 ZONE     2

     553 UPPER PART EQS.       556 LOWER PART EQS.    BAND WIDTH + 1 =   32
 STRESS PERIOD=  1 TIMESTEP=425 LAYER=  2 ZONE=  2 ACTIVE CELLS= 1109 NUMBER OF EQUATIONS=    1109

 SOLVING FOR HEAD 

 NO OUTPUT CONTROL FOR STRESS PERIOD    1   TIME STEP  426
 SOLVING FOR ZETA FOR LAYER     1 ZONE     2

     600 UPPER PART EQS.       594 LOWER PART EQS.    BAND WIDTH + 1 =   29
 STRESS PERIOD=  1 TIMESTEP=426 LAYER=  1 ZONE=  2 ACTIVE CELLS= 1194 NUMBER OF EQUATIONS=    1194
 SOLVING FOR ZETA FOR LAYER     2 ZONE     2

     553 UPPER PART EQS.       556 LOWER PART EQS.    BAND WIDTH + 1 =   32
 STRESS PERIOD=  1 TIMESTEP=426 LAYER=  2 ZONE=  2 ACTIVE CELLS= 1109 NUMBER OF EQUATIONS=    1109

 SOLVING FOR HEAD 

 NO OUTPUT CONTROL FOR STRESS PERIOD    1   TIME STEP  427
 SOLVING FOR ZETA FOR LAYER     1 ZONE     2

     604 UPPER PART EQS.       602 LOWER PART EQS.    BAND WIDTH + 1 =   23
 STRESS PERIOD=  1 TIMESTEP=427 LAYER=  1 ZONE=  2 ACTIVE CELLS= 1206 NUMBER OF EQUATIONS=    1206
 SOLVING FOR ZETA FOR LAYER     2 ZONE     2

     553 UPPER PART EQS.       556 LOWER PART EQS.    BAND WIDTH + 1 =   32
 STRESS PERIOD=  1 TIMESTEP=427 LAYER=  2 ZONE=  2 ACTIVE CELLS= 1109 NUMBER OF EQUATIONS=    1109

 SOLVING FOR HEAD 

 NO OUTPUT CONTROL FOR STRESS PERIOD    1   TIME STEP  428
 SOLVING FOR ZETA FOR LAYER     1 ZONE     2

     596 UPPER PART EQS.       574 LOWER PART EQS.    BAND WIDTH + 1 =   41
 STRESS PERIOD=  1 TIMESTEP=428 LAYER=  1 ZONE=  2 ACTIVE CELLS= 1170 NUMBER OF EQUATIONS=    1170
 SOLVING FOR ZETA FOR LAYER     2 ZONE     2

     553 UPPER PART EQS.       554 LOWER PART EQS.    BAND WIDTH + 1 =   32
 STRESS PERIOD=  1 TIMESTEP=428 LAYER=  2 ZONE=  2 ACTIVE CELLS= 1107 NUMBER OF EQUATIONS=    1107

 SOLVING FOR HEAD 

 NO OUTPUT CONTROL FOR STRESS PERIOD    1   TIME STEP  429
 SOLVING FOR ZETA FOR LAYER     1 ZONE     2

     592 UPPER PART EQS.       594 LOWER PART EQS.    BAND WIDTH + 1 =   25
 STRESS PERIOD=  1 TIMESTEP=429 LAYER=  1 ZONE=  2 ACTIVE CELLS= 1186 NUMBER OF EQUATIONS=    1186
 SOLVING FOR ZETA FOR LAYER     2 ZONE     2

     553 UPPER PART EQS.       556 LOWER PART EQS.    BAND WIDTH + 1 =   32
 STRESS PERIOD=  1 TIMESTEP=429 LAYER=  2 ZONE=  2 ACTIVE CELLS= 1109 NUMBER OF EQUATIONS=    1109

 SOLVING FOR HEAD 

 NO OUTPUT CONTROL FOR STRESS PERIOD    1   TIME STEP  430
 SOLVING FOR ZETA FOR LAYER     1 ZONE     2

     608 UPPER PART EQS.       602 LOWER PART EQS.    BAND WIDTH + 1 =   29
 STRESS PERIOD=  1 TIMESTEP=430 LAYER=  1 ZONE=  2 ACTIVE CELLS= 1210 NUMBER OF EQUATIONS=    1210
 SOLVING FOR ZETA FOR LAYER     2 ZONE     2

     553 UPPER PART EQS.       556 LOWER PART EQS.    BAND WIDTH + 1 =   32
 STRESS PERIOD=  1 TIMESTEP=430 LAYER=  2 ZONE=  2 ACTIVE CELLS= 1109 NUMBER OF EQUATIONS=    1109

 SOLVING FOR HEAD 

 NO OUTPUT CONTROL FOR STRESS PERIOD    1   TIME STEP  431
 SOLVING FOR ZETA FOR LAYER     1 ZONE     2

     608 UPPER PART EQS.       596 LOWER PART EQS.    BAND WIDTH + 1 =   33
 STRESS PERIOD=  1 TIMESTEP=431 LAYER=  1 ZONE=  2 ACTIVE CELLS= 1204 NUMBER OF EQUATIONS=    1204
 SOLVING FOR ZETA FOR LAYER     2 ZONE     2

     553 UPPER PART EQS.       556 LOWER PART EQS.    BAND WIDTH + 1 =   32
 STRESS PERIOD=  1 TIMESTEP=431 LAYER=  2 ZONE=  2 ACTIVE CELLS= 1109 NUMBER OF EQUATIONS=    1109

 SOLVING FOR HEAD 

 NO OUTPUT CONTROL FOR STRESS PERIOD    1   TIME STEP  432
 SOLVING FOR ZETA FOR LAYER     1 ZONE     2

     592 UPPER PART EQS.       580 LOWER PART EQS.    BAND WIDTH + 1 =   31
 STRESS PERIOD=  1 TIMESTEP=432 LAYER=  1 ZONE=  2 ACTIVE CELLS= 1172 NUMBER OF EQUATIONS=    1172
 SOLVING FOR ZETA FOR LAYER     2 ZONE     2

     555 UPPER PART EQS.       556 LOWER PART EQS.    BAND WIDTH + 1 =   32
 STRESS PERIOD=  1 TIMESTEP=432 LAYER=  2 ZONE=  2 ACTIVE CELLS= 1111 NUMBER OF EQUATIONS=    1111

 SOLVING FOR HEAD 

 NO OUTPUT CONTROL FOR STRESS PERIOD    1   TIME STEP  433
 SOLVING FOR ZETA FOR LAYER     1 ZONE     2

     612 UPPER PART EQS.       598 LOWER PART EQS.    BAND WIDTH + 1 =   29
 STRESS PERIOD=  1 TIMESTEP=433 LAYER=  1 ZONE=  2 ACTIVE CELLS= 1210 NUMBER OF EQUATIONS=    1210
 SOLVING FOR ZETA FOR LAYER     2 ZONE     2

     555 UPPER PART EQS.       556 LOWER PART EQS.    BAND WIDTH + 1 =   32
 STRESS PERIOD=  1 TIMESTEP=433 LAYER=  2 ZONE=  2 ACTIVE CELLS= 1111 NUMBER OF EQUATIONS=    1111

 SOLVING FOR HEAD 

 NO OUTPUT CONTROL FOR STRESS PERIOD    1   TIME STEP  434
 SOLVING FOR ZETA FOR LAYER     1 ZONE     2

     608 UPPER PART EQS.       592 LOWER PART EQS.    BAND WIDTH + 1 =   39
 STRESS PERIOD=  1 TIMESTEP=434 LAYER=  1 ZONE=  2 ACTIVE CELLS= 1200 NUMBER OF EQUATIONS=    1200
 SOLVING FOR ZETA FOR LAYER     2 ZONE     2

     557 UPPER PART EQS.       556 LOWER PART EQS.    BAND WIDTH + 1 =   32
 STRESS PERIOD=  1 TIMESTEP=434 LAYER=  2 ZONE=  2 ACTIVE CELLS= 1113 NUMBER OF EQUATIONS=    1113

 SOLVING FOR HEAD 

 NO OUTPUT CONTROL FOR STRESS PERIOD    1   TIME STEP  435
 SOLVING FOR ZETA FOR LAYER     1 ZONE     2

     604 UPPER PART EQS.       614 LOWER PART EQS.    BAND WIDTH + 1 =   29
 STRESS PERIOD=  1 TIMESTEP=435 LAYER=  1 ZONE=  2 ACTIVE CELLS= 1218 NUMBER OF EQUATIONS=    1218
 SOLVING FOR ZETA FOR LAYER     2 ZONE     2

     561 UPPER PART EQS.       556 LOWER PART EQS.    BAND WIDTH + 1 =   32
 STRESS PERIOD=  1 TIMESTEP=435 LAYER=  2 ZONE=  2 ACTIVE CELLS= 1117 NUMBER OF EQUATIONS=    1117

 SOLVING FOR HEAD 

 NO OUTPUT CONTROL FOR STRESS PERIOD    1   TIME STEP  436
 SOLVING FOR ZETA FOR LAYER     1 ZONE     2

     600 UPPER PART EQS.       584 LOWER PART EQS.    BAND WIDTH + 1 =   35
 STRESS PERIOD=  1 TIMESTEP=436 LAYER=  1 ZONE=  2 ACTIVE CELLS= 1184 NUMBER OF EQUATIONS=    1184
 SOLVING FOR ZETA FOR LAYER     2 ZONE     2

     561 UPPER PART EQS.       556 LOWER PART EQS.    BAND WIDTH + 1 =   32
 STRESS PERIOD=  1 TIMESTEP=436 LAYER=  2 ZONE=  2 ACTIVE CELLS= 1117 NUMBER OF EQUATIONS=    1117

 SOLVING FOR HEAD 

 NO OUTPUT CONTROL FOR STRESS PERIOD    1   TIME STEP  437
 SOLVING FOR ZETA FOR LAYER     1 ZONE     2

     592 UPPER PART EQS.       580 LOWER PART EQS.    BAND WIDTH + 1 =   33
 STRESS PERIOD=  1 TIMESTEP=437 LAYER=  1 ZONE=  2 ACTIVE CELLS= 1172 NUMBER OF EQUATIONS=    1172
 SOLVING FOR ZETA FOR LAYER     2 ZONE     2

     561 UPPER PART EQS.       556 LOWER PART EQS.    BAND WIDTH + 1 =   32
 STRESS PERIOD=  1 TIMESTEP=437 LAYER=  2 ZONE=  2 ACTIVE CELLS= 1117 NUMBER OF EQUATIONS=    1117

 SOLVING FOR HEAD 

 NO OUTPUT CONTROL FOR STRESS PERIOD    1   TIME STEP  438
 SOLVING FOR ZETA FOR LAYER     1 ZONE     2

     608 UPPER PART EQS.       606 LOWER PART EQS.    BAND WIDTH + 1 =   27
 STRESS PERIOD=  1 TIMESTEP=438 LAYER=  1 ZONE=  2 ACTIVE CELLS= 1214 NUMBER OF EQUATIONS=    1214
 SOLVING FOR ZETA FOR LAYER     2 ZONE     2

     561 UPPER PART EQS.       556 LOWER PART EQS.    BAND WIDTH + 1 =   32
 STRESS PERIOD=  1 TIMESTEP=438 LAYER=  2 ZONE=  2 ACTIVE CELLS= 1117 NUMBER OF EQUATIONS=    1117

 SOLVING FOR HEAD 

 NO OUTPUT CONTROL FOR STRESS PERIOD    1   TIME STEP  439
 SOLVING FOR ZETA FOR LAYER     1 ZONE     2

     600 UPPER PART EQS.       602 LOWER PART EQS.    BAND WIDTH + 1 =   25
 STRESS PERIOD=  1 TIMESTEP=439 LAYER=  1 ZONE=  2 ACTIVE CELLS= 1202 NUMBER OF EQUATIONS=    1202
 SOLVING FOR ZETA FOR LAYER     2 ZONE     2

     561 UPPER PART EQS.       556 LOWER PART EQS.    BAND WIDTH + 1 =   32
 STRESS PERIOD=  1 TIMESTEP=439 LAYER=  2 ZONE=  2 ACTIVE CELLS= 1117 NUMBER OF EQUATIONS=    1117

 SOLVING FOR HEAD 

 NO OUTPUT CONTROL FOR STRESS PERIOD    1   TIME STEP  440
 SOLVING FOR ZETA FOR LAYER     1 ZONE     2

     612 UPPER PART EQS.       586 LOWER PART EQS.    BAND WIDTH + 1 =   45
 STRESS PERIOD=  1 TIMESTEP=440 LAYER=  1 ZONE=  2 ACTIVE CELLS= 1198 NUMBER OF EQUATIONS=    1198
 SOLVING FOR ZETA FOR LAYER     2 ZONE     2

     561 UPPER PART EQS.       556 LOWER PART EQS.    BAND WIDTH + 1 =   32
 STRESS PERIOD=  1 TIMESTEP=440 LAYER=  2 ZONE=  2 ACTIVE CELLS= 1117 NUMBER OF EQUATIONS=    1117

 SOLVING FOR HEAD 

 NO OUTPUT CONTROL FOR STRESS PERIOD    1   TIME STEP  441
 SOLVING FOR ZETA FOR LAYER     1 ZONE     2

     596 UPPER PART EQS.       610 LOWER PART EQS.    BAND WIDTH + 1 =   31
 STRESS PERIOD=  1 TIMESTEP=441 LAYER=  1 ZONE=  2 ACTIVE CELLS= 1206 NUMBER OF EQUATIONS=    1206
 SOLVING FOR ZETA FOR LAYER     2 ZONE     2

     561 UPPER PART EQS.       556 LOWER PART EQS.    BAND WIDTH + 1 =   32
 STRESS PERIOD=  1 TIMESTEP=441 LAYER=  2 ZONE=  2 ACTIVE CELLS= 1117 NUMBER OF EQUATIONS=    1117

 SOLVING FOR HEAD 

 NO OUTPUT CONTROL FOR STRESS PERIOD    1   TIME STEP  442
 SOLVING FOR ZETA FOR LAYER     1 ZONE     2

     612 UPPER PART EQS.       592 LOWER PART EQS.    BAND WIDTH + 1 =   35
 STRESS PERIOD=  1 TIMESTEP=442 LAYER=  1 ZONE=  2 ACTIVE CELLS= 1204 NUMBER OF EQUATIONS=    1204
 SOLVING FOR ZETA FOR LAYER     2 ZONE     2

     561 UPPER PART EQS.       556 LOWER PART EQS.    BAND WIDTH + 1 =   32
 STRESS PERIOD=  1 TIMESTEP=442 LAYER=  2 ZONE=  2 ACTIVE CELLS= 1117 NUMBER OF EQUATIONS=    1117

 SOLVING FOR HEAD 

 NO OUTPUT CONTROL FOR STRESS PERIOD    1   TIME STEP  443
 SOLVING FOR ZETA FOR LAYER     1 ZONE     2

     614 UPPER PART EQS.       588 LOWER PART EQS.    BAND WIDTH + 1 =   41
 STRESS PERIOD=  1 TIMESTEP=443 LAYER=  1 ZONE=  2 ACTIVE CELLS= 1202 NUMBER OF EQUATIONS=    1202
 SOLVING FOR ZETA FOR LAYER     2 ZONE     2

     561 UPPER PART EQS.       556 LOWER PART EQS.    BAND WIDTH + 1 =   32
 STRESS PERIOD=  1 TIMESTEP=443 LAYER=  2 ZONE=  2 ACTIVE CELLS= 1117 NUMBER OF EQUATIONS=    1117

 SOLVING FOR HEAD 

 NO OUTPUT CONTROL FOR STRESS PERIOD    1   TIME STEP  444
 SOLVING FOR ZETA FOR LAYER     1 ZONE     2

     600 UPPER PART EQS.       598 LOWER PART EQS.    BAND WIDTH + 1 =   27
 STRESS PERIOD=  1 TIMESTEP=444 LAYER=  1 ZONE=  2 ACTIVE CELLS= 1198 NUMBER OF EQUATIONS=    1198
 SOLVING FOR ZETA FOR LAYER     2 ZONE     2

     561 UPPER PART EQS.       556 LOWER PART EQS.    BAND WIDTH + 1 =   32
 STRESS PERIOD=  1 TIMESTEP=444 LAYER=  2 ZONE=  2 ACTIVE CELLS= 1117 NUMBER OF EQUATIONS=    1117

 SOLVING FOR HEAD 

 NO OUTPUT CONTROL FOR STRESS PERIOD    1   TIME STEP  445
 SOLVING FOR ZETA FOR LAYER     1 ZONE     2

     602 UPPER PART EQS.       598 LOWER PART EQS.    BAND WIDTH + 1 =   23
 STRESS PERIOD=  1 TIMESTEP=445 LAYER=  1 ZONE=  2 ACTIVE CELLS= 1200 NUMBER OF EQUATIONS=    1200
 SOLVING FOR ZETA FOR LAYER     2 ZONE     2

     561 UPPER PART EQS.       556 LOWER PART EQS.    BAND WIDTH + 1 =   32
 STRESS PERIOD=  1 TIMESTEP=445 LAYER=  2 ZONE=  2 ACTIVE CELLS= 1117 NUMBER OF EQUATIONS=    1117

 SOLVING FOR HEAD 

 NO OUTPUT CONTROL FOR STRESS PERIOD    1   TIME STEP  446
 SOLVING FOR ZETA FOR LAYER     1 ZONE     2

     616 UPPER PART EQS.       598 LOWER PART EQS.    BAND WIDTH + 1 =   41
 STRESS PERIOD=  1 TIMESTEP=446 LAYER=  1 ZONE=  2 ACTIVE CELLS= 1214 NUMBER OF EQUATIONS=    1214
 SOLVING FOR ZETA FOR LAYER     2 ZONE     2

     561 UPPER PART EQS.       556 LOWER PART EQS.    BAND WIDTH + 1 =   32
 STRESS PERIOD=  1 TIMESTEP=446 LAYER=  2 ZONE=  2 ACTIVE CELLS= 1117 NUMBER OF EQUATIONS=    1117

 SOLVING FOR HEAD 

 NO OUTPUT CONTROL FOR STRESS PERIOD    1   TIME STEP  447
 SOLVING FOR ZETA FOR LAYER     1 ZONE     2

     596 UPPER PART EQS.       606 LOWER PART EQS.    BAND WIDTH + 1 =   29
 STRESS PERIOD=  1 TIMESTEP=447 LAYER=  1 ZONE=  2 ACTIVE CELLS= 1202 NUMBER OF EQUATIONS=    1202
 SOLVING FOR ZETA FOR LAYER     2 ZONE     2

     559 UPPER PART EQS.       556 LOWER PART EQS.    BAND WIDTH + 1 =   32
 STRESS PERIOD=  1 TIMESTEP=447 LAYER=  2 ZONE=  2 ACTIVE CELLS= 1115 NUMBER OF EQUATIONS=    1115

 SOLVING FOR HEAD 

 NO OUTPUT CONTROL FOR STRESS PERIOD    1   TIME STEP  448
 SOLVING FOR ZETA FOR LAYER     1 ZONE     2

     606 UPPER PART EQS.       598 LOWER PART EQS.    BAND WIDTH + 1 =   29
 STRESS PERIOD=  1 TIMESTEP=448 LAYER=  1 ZONE=  2 ACTIVE CELLS= 1204 NUMBER OF EQUATIONS=    1204
 SOLVING FOR ZETA FOR LAYER     2 ZONE     2

     561 UPPER PART EQS.       556 LOWER PART EQS.    BAND WIDTH + 1 =   32
 STRESS PERIOD=  1 TIMESTEP=448 LAYER=  2 ZONE=  2 ACTIVE CELLS= 1117 NUMBER OF EQUATIONS=    1117

 SOLVING FOR HEAD 

 NO OUTPUT CONTROL FOR STRESS PERIOD    1   TIME STEP  449
 SOLVING FOR ZETA FOR LAYER     1 ZONE     2

     618 UPPER PART EQS.       594 LOWER PART EQS.    BAND WIDTH + 1 =   37
 STRESS PERIOD=  1 TIMESTEP=449 LAYER=  1 ZONE=  2 ACTIVE CELLS= 1212 NUMBER OF EQUATIONS=    1212
 SOLVING FOR ZETA FOR LAYER     2 ZONE     2

     561 UPPER PART EQS.       556 LOWER PART EQS.    BAND WIDTH + 1 =   32
 STRESS PERIOD=  1 TIMESTEP=449 LAYER=  2 ZONE=  2 ACTIVE CELLS= 1117 NUMBER OF EQUATIONS=    1117

 SOLVING FOR HEAD 

 NO OUTPUT CONTROL FOR STRESS PERIOD    1   TIME STEP  450
 SOLVING FOR ZETA FOR LAYER     1 ZONE     2

     612 UPPER PART EQS.       606 LOWER PART EQS.    BAND WIDTH + 1 =   29
 STRESS PERIOD=  1 TIMESTEP=450 LAYER=  1 ZONE=  2 ACTIVE CELLS= 1218 NUMBER OF EQUATIONS=    1218
 SOLVING FOR ZETA FOR LAYER     2 ZONE     2

     561 UPPER PART EQS.       558 LOWER PART EQS.    BAND WIDTH + 1 =   32
 STRESS PERIOD=  1 TIMESTEP=450 LAYER=  2 ZONE=  2 ACTIVE CELLS= 1119 NUMBER OF EQUATIONS=    1119

 SOLVING FOR HEAD 

 NO OUTPUT CONTROL FOR STRESS PERIOD    1   TIME STEP  451
 SOLVING FOR ZETA FOR LAYER     1 ZONE     2

     596 UPPER PART EQS.       598 LOWER PART EQS.    BAND WIDTH + 1 =   27
 STRESS PERIOD=  1 TIMESTEP=451 LAYER=  1 ZONE=  2 ACTIVE CELLS= 1194 NUMBER OF EQUATIONS=    1194
 SOLVING FOR ZETA FOR LAYER     2 ZONE     2

     563 UPPER PART EQS.       558 LOWER PART EQS.    BAND WIDTH + 1 =   32
 STRESS PERIOD=  1 TIMESTEP=451 LAYER=  2 ZONE=  2 ACTIVE CELLS= 1121 NUMBER OF EQUATIONS=    1121

 SOLVING FOR HEAD 

 NO OUTPUT CONTROL FOR STRESS PERIOD    1   TIME STEP  452
 SOLVING FOR ZETA FOR LAYER     1 ZONE     2

     612 UPPER PART EQS.       600 LOWER PART EQS.    BAND WIDTH + 1 =   35
 STRESS PERIOD=  1 TIMESTEP=452 LAYER=  1 ZONE=  2 ACTIVE CELLS= 1212 NUMBER OF EQUATIONS=    1212
 SOLVING FOR ZETA FOR LAYER     2 ZONE     2

     565 UPPER PART EQS.       564 LOWER PART EQS.    BAND WIDTH + 1 =   32
 STRESS PERIOD=  1 TIMESTEP=452 LAYER=  2 ZONE=  2 ACTIVE CELLS= 1129 NUMBER OF EQUATIONS=    1129

 SOLVING FOR HEAD 

 NO OUTPUT CONTROL FOR STRESS PERIOD    1   TIME STEP  453
 SOLVING FOR ZETA FOR LAYER     1 ZONE     2

     604 UPPER PART EQS.       606 LOWER PART EQS.    BAND WIDTH + 1 =   25
 STRESS PERIOD=  1 TIMESTEP=453 LAYER=  1 ZONE=  2 ACTIVE CELLS= 1210 NUMBER OF EQUATIONS=    1210
 SOLVING FOR ZETA FOR LAYER     2 ZONE     2

     565 UPPER PART EQS.       564 LOWER PART EQS.    BAND WIDTH + 1 =   32
 STRESS PERIOD=  1 TIMESTEP=453 LAYER=  2 ZONE=  2 ACTIVE CELLS= 1129 NUMBER OF EQUATIONS=    1129

 SOLVING FOR HEAD 

 NO OUTPUT CONTROL FOR STRESS PERIOD    1   TIME STEP  454
 SOLVING FOR ZETA FOR LAYER     1 ZONE     2

     600 UPPER PART EQS.       592 LOWER PART EQS.    BAND WIDTH + 1 =   29
 STRESS PERIOD=  1 TIMESTEP=454 LAYER=  1 ZONE=  2 ACTIVE CELLS= 1192 NUMBER OF EQUATIONS=    1192
 SOLVING FOR ZETA FOR LAYER     2 ZONE     2

     561 UPPER PART EQS.       562 LOWER PART EQS.    BAND WIDTH + 1 =   32
 STRESS PERIOD=  1 TIMESTEP=454 LAYER=  2 ZONE=  2 ACTIVE CELLS= 1123 NUMBER OF EQUATIONS=    1123

 SOLVING FOR HEAD 

 NO OUTPUT CONTROL FOR STRESS PERIOD    1   TIME STEP  455
 SOLVING FOR ZETA FOR LAYER     1 ZONE     2

     614 UPPER PART EQS.       596 LOWER PART EQS.    BAND WIDTH + 1 =   35
 STRESS PERIOD=  1 TIMESTEP=455 LAYER=  1 ZONE=  2 ACTIVE CELLS= 1210 NUMBER OF EQUATIONS=    1210
 SOLVING FOR ZETA FOR LAYER     2 ZONE     2

     567 UPPER PART EQS.       564 LOWER PART EQS.    BAND WIDTH + 1 =   32
 STRESS PERIOD=  1 TIMESTEP=455 LAYER=  2 ZONE=  2 ACTIVE CELLS= 1131 NUMBER OF EQUATIONS=    1131

 SOLVING FOR HEAD 

 NO OUTPUT CONTROL FOR STRESS PERIOD    1   TIME STEP  456
 SOLVING FOR ZETA FOR LAYER     1 ZONE     2

     602 UPPER PART EQS.       606 LOWER PART EQS.    BAND WIDTH + 1 =   24
 STRESS PERIOD=  1 TIMESTEP=456 LAYER=  1 ZONE=  2 ACTIVE CELLS= 1208 NUMBER OF EQUATIONS=    1208
 SOLVING FOR ZETA FOR LAYER     2 ZONE     2

     567 UPPER PART EQS.       558 LOWER PART EQS.    BAND WIDTH + 1 =   32
 STRESS PERIOD=  1 TIMESTEP=456 LAYER=  2 ZONE=  2 ACTIVE CELLS= 1125 NUMBER OF EQUATIONS=    1125

 SOLVING FOR HEAD 

 NO OUTPUT CONTROL FOR STRESS PERIOD    1   TIME STEP  457
 SOLVING FOR ZETA FOR LAYER     1 ZONE     2

     608 UPPER PART EQS.       602 LOWER PART EQS.    BAND WIDTH + 1 =   27
 STRESS PERIOD=  1 TIMESTEP=457 LAYER=  1 ZONE=  2 ACTIVE CELLS= 1210 NUMBER OF EQUATIONS=    1210
 SOLVING FOR ZETA FOR LAYER     2 ZONE     2

     573 UPPER PART EQS.       564 LOWER PART EQS.    BAND WIDTH + 1 =   32
 STRESS PERIOD=  1 TIMESTEP=457 LAYER=  2 ZONE=  2 ACTIVE CELLS= 1137 NUMBER OF EQUATIONS=    1137

 SOLVING FOR HEAD 

 NO OUTPUT CONTROL FOR STRESS PERIOD    1   TIME STEP  458
 SOLVING FOR ZETA FOR LAYER     1 ZONE     2

     612 UPPER PART EQS.       604 LOWER PART EQS.    BAND WIDTH + 1 =   30
 STRESS PERIOD=  1 TIMESTEP=458 LAYER=  1 ZONE=  2 ACTIVE CELLS= 1216 NUMBER OF EQUATIONS=    1216
 SOLVING FOR ZETA FOR LAYER     2 ZONE     2

     573 UPPER PART EQS.       564 LOWER PART EQS.    BAND WIDTH + 1 =   32
 STRESS PERIOD=  1 TIMESTEP=458 LAYER=  2 ZONE=  2 ACTIVE CELLS= 1137 NUMBER OF EQUATIONS=    1137

 SOLVING FOR HEAD 

 NO OUTPUT CONTROL FOR STRESS PERIOD    1   TIME STEP  459
 SOLVING FOR ZETA FOR LAYER     1 ZONE     2

     604 UPPER PART EQS.       602 LOWER PART EQS.    BAND WIDTH + 1 =   25
 STRESS PERIOD=  1 TIMESTEP=459 LAYER=  1 ZONE=  2 ACTIVE CELLS= 1206 NUMBER OF EQUATIONS=    1206
 SOLVING FOR ZETA FOR LAYER     2 ZONE     2

     567 UPPER PART EQS.       562 LOWER PART EQS.    BAND WIDTH + 1 =   32
 STRESS PERIOD=  1 TIMESTEP=459 LAYER=  2 ZONE=  2 ACTIVE CELLS= 1129 NUMBER OF EQUATIONS=    1129

 SOLVING FOR HEAD 

 NO OUTPUT CONTROL FOR STRESS PERIOD    1   TIME STEP  460
 SOLVING FOR ZETA FOR LAYER     1 ZONE     2

     598 UPPER PART EQS.       598 LOWER PART EQS.    BAND WIDTH + 1 =   27
 STRESS PERIOD=  1 TIMESTEP=460 LAYER=  1 ZONE=  2 ACTIVE CELLS= 1196 NUMBER OF EQUATIONS=    1196
 SOLVING FOR ZETA FOR LAYER     2 ZONE     2

     573 UPPER PART EQS.       564 LOWER PART EQS.    BAND WIDTH + 1 =   32
 STRESS PERIOD=  1 TIMESTEP=460 LAYER=  2 ZONE=  2 ACTIVE CELLS= 1137 NUMBER OF EQUATIONS=    1137

 SOLVING FOR HEAD 

 NO OUTPUT CONTROL FOR STRESS PERIOD    1   TIME STEP  461
 SOLVING FOR ZETA FOR LAYER     1 ZONE     2

     608 UPPER PART EQS.       600 LOWER PART EQS.    BAND WIDTH + 1 =   27
 STRESS PERIOD=  1 TIMESTEP=461 LAYER=  1 ZONE=  2 ACTIVE CELLS= 1208 NUMBER OF EQUATIONS=    1208
 SOLVING FOR ZETA FOR LAYER     2 ZONE     2

     567 UPPER PART EQS.       558 LOWER PART EQS.    BAND WIDTH + 1 =   32
 STRESS PERIOD=  1 TIMESTEP=461 LAYER=  2 ZONE=  2 ACTIVE CELLS= 1125 NUMBER OF EQUATIONS=    1125

 SOLVING FOR HEAD 

 NO OUTPUT CONTROL FOR STRESS PERIOD    1   TIME STEP  462
 SOLVING FOR ZETA FOR LAYER     1 ZONE     2

     590 UPPER PART EQS.       614 LOWER PART EQS.    BAND WIDTH + 1 =   37
 STRESS PERIOD=  1 TIMESTEP=462 LAYER=  1 ZONE=  2 ACTIVE CELLS= 1204 NUMBER OF EQUATIONS=    1204
 SOLVING FOR ZETA FOR LAYER     2 ZONE     2

     573 UPPER PART EQS.       564 LOWER PART EQS.    BAND WIDTH + 1 =   32
 STRESS PERIOD=  1 TIMESTEP=462 LAYER=  2 ZONE=  2 ACTIVE CELLS= 1137 NUMBER OF EQUATIONS=    1137

 SOLVING FOR HEAD 

 NO OUTPUT CONTROL FOR STRESS PERIOD    1   TIME STEP  463
 SOLVING FOR ZETA FOR LAYER     1 ZONE     2

     612 UPPER PART EQS.       605 LOWER PART EQS.    BAND WIDTH + 1 =   27
 STRESS PERIOD=  1 TIMESTEP=463 LAYER=  1 ZONE=  2 ACTIVE CELLS= 1217 NUMBER OF EQUATIONS=    1217
 SOLVING FOR ZETA FOR LAYER     2 ZONE     2

     573 UPPER PART EQS.       564 LOWER PART EQS.    BAND WIDTH + 1 =   32
 STRESS PERIOD=  1 TIMESTEP=463 LAYER=  2 ZONE=  2 ACTIVE CELLS= 1137 NUMBER OF EQUATIONS=    1137

 SOLVING FOR HEAD 

 NO OUTPUT CONTROL FOR STRESS PERIOD    1   TIME STEP  464
 SOLVING FOR ZETA FOR LAYER     1 ZONE     2

     616 UPPER PART EQS.       593 LOWER PART EQS.    BAND WIDTH + 1 =   31
 STRESS PERIOD=  1 TIMESTEP=464 LAYER=  1 ZONE=  2 ACTIVE CELLS= 1209 NUMBER OF EQUATIONS=    1209
 SOLVING FOR ZETA FOR LAYER     2 ZONE     2

     565 UPPER PART EQS.       562 LOWER PART EQS.    BAND WIDTH + 1 =   32
 STRESS PERIOD=  1 TIMESTEP=464 LAYER=  2 ZONE=  2 ACTIVE CELLS= 1127 NUMBER OF EQUATIONS=    1127

 SOLVING FOR HEAD 

 NO OUTPUT CONTROL FOR STRESS PERIOD    1   TIME STEP  465
 SOLVING FOR ZETA FOR LAYER     1 ZONE     2

     602 UPPER PART EQS.       607 LOWER PART EQS.    BAND WIDTH + 1 =   25
 STRESS PERIOD=  1 TIMESTEP=465 LAYER=  1 ZONE=  2 ACTIVE CELLS= 1209 NUMBER OF EQUATIONS=    1209
 SOLVING FOR ZETA FOR LAYER     2 ZONE     2

     573 UPPER PART EQS.       566 LOWER PART EQS.    BAND WIDTH + 1 =   32
 STRESS PERIOD=  1 TIMESTEP=465 LAYER=  2 ZONE=  2 ACTIVE CELLS= 1139 NUMBER OF EQUATIONS=    1139

 SOLVING FOR HEAD 

 NO OUTPUT CONTROL FOR STRESS PERIOD    1   TIME STEP  466
 SOLVING FOR ZETA FOR LAYER     1 ZONE     2

     593 UPPER PART EQS.       607 LOWER PART EQS.    BAND WIDTH + 1 =   34
 STRESS PERIOD=  1 TIMESTEP=466 LAYER=  1 ZONE=  2 ACTIVE CELLS= 1200 NUMBER OF EQUATIONS=    1200
 SOLVING FOR ZETA FOR LAYER     2 ZONE     2

     567 UPPER PART EQS.       566 LOWER PART EQS.    BAND WIDTH + 1 =   32
 STRESS PERIOD=  1 TIMESTEP=466 LAYER=  2 ZONE=  2 ACTIVE CELLS= 1133 NUMBER OF EQUATIONS=    1133

 SOLVING FOR HEAD 

 NO OUTPUT CONTROL FOR STRESS PERIOD    1   TIME STEP  467
 SOLVING FOR ZETA FOR LAYER     1 ZONE     2

     599 UPPER PART EQS.       602 LOWER PART EQS.    BAND WIDTH + 1 =   30
 STRESS PERIOD=  1 TIMESTEP=467 LAYER=  1 ZONE=  2 ACTIVE CELLS= 1201 NUMBER OF EQUATIONS=    1201
 SOLVING FOR ZETA FOR LAYER     2 ZONE     2

     573 UPPER PART EQS.       572 LOWER PART EQS.    BAND WIDTH + 1 =   32
 STRESS PERIOD=  1 TIMESTEP=467 LAYER=  2 ZONE=  2 ACTIVE CELLS= 1145 NUMBER OF EQUATIONS=    1145

 SOLVING FOR HEAD 

 NO OUTPUT CONTROL FOR STRESS PERIOD    1   TIME STEP  468
 SOLVING FOR ZETA FOR LAYER     1 ZONE     2

     605 UPPER PART EQS.       602 LOWER PART EQS.    BAND WIDTH + 1 =   28
 STRESS PERIOD=  1 TIMESTEP=468 LAYER=  1 ZONE=  2 ACTIVE CELLS= 1207 NUMBER OF EQUATIONS=    1207
 SOLVING FOR ZETA FOR LAYER     2 ZONE     2

     573 UPPER PART EQS.       572 LOWER PART EQS.    BAND WIDTH + 1 =   32
 STRESS PERIOD=  1 TIMESTEP=468 LAYER=  2 ZONE=  2 ACTIVE CELLS= 1145 NUMBER OF EQUATIONS=    1145

 SOLVING FOR HEAD 

 NO OUTPUT CONTROL FOR STRESS PERIOD    1   TIME STEP  469
 SOLVING FOR ZETA FOR LAYER     1 ZONE     2

     614 UPPER PART EQS.       600 LOWER PART EQS.    BAND WIDTH + 1 =   30
 STRESS PERIOD=  1 TIMESTEP=469 LAYER=  1 ZONE=  2 ACTIVE CELLS= 1214 NUMBER OF EQUATIONS=    1214
 SOLVING FOR ZETA FOR LAYER     2 ZONE     2

     567 UPPER PART EQS.       568 LOWER PART EQS.    BAND WIDTH + 1 =   32
 STRESS PERIOD=  1 TIMESTEP=469 LAYER=  2 ZONE=  2 ACTIVE CELLS= 1135 NUMBER OF EQUATIONS=    1135

 SOLVING FOR HEAD 

 NO OUTPUT CONTROL FOR STRESS PERIOD    1   TIME STEP  470
 SOLVING FOR ZETA FOR LAYER     1 ZONE     2

     616 UPPER PART EQS.       612 LOWER PART EQS.    BAND WIDTH + 1 =   27
 STRESS PERIOD=  1 TIMESTEP=470 LAYER=  1 ZONE=  2 ACTIVE CELLS= 1228 NUMBER OF EQUATIONS=    1228
 SOLVING FOR ZETA FOR LAYER     2 ZONE     2

     571 UPPER PART EQS.       566 LOWER PART EQS.    BAND WIDTH + 1 =   32
 STRESS PERIOD=  1 TIMESTEP=470 LAYER=  2 ZONE=  2 ACTIVE CELLS= 1137 NUMBER OF EQUATIONS=    1137

 SOLVING FOR HEAD 

 NO OUTPUT CONTROL FOR STRESS PERIOD    1   TIME STEP  471
 SOLVING FOR ZETA FOR LAYER     1 ZONE     2

     594 UPPER PART EQS.       604 LOWER PART EQS.    BAND WIDTH + 1 =   26
 STRESS PERIOD=  1 TIMESTEP=471 LAYER=  1 ZONE=  2 ACTIVE CELLS= 1198 NUMBER OF EQUATIONS=    1198
 SOLVING FOR ZETA FOR LAYER     2 ZONE     2

     567 UPPER PART EQS.       566 LOWER PART EQS.    BAND WIDTH + 1 =   32
 STRESS PERIOD=  1 TIMESTEP=471 LAYER=  2 ZONE=  2 ACTIVE CELLS= 1133 NUMBER OF EQUATIONS=    1133

 SOLVING FOR HEAD 

 NO OUTPUT CONTROL FOR STRESS PERIOD    1   TIME STEP  472
 SOLVING FOR ZETA FOR LAYER     1 ZONE     2

     605 UPPER PART EQS.       606 LOWER PART EQS.    BAND WIDTH + 1 =   28
 STRESS PERIOD=  1 TIMESTEP=472 LAYER=  1 ZONE=  2 ACTIVE CELLS= 1211 NUMBER OF EQUATIONS=    1211
 SOLVING FOR ZETA FOR LAYER     2 ZONE     2

     569 UPPER PART EQS.       572 LOWER PART EQS.    BAND WIDTH + 1 =   32
 STRESS PERIOD=  1 TIMESTEP=472 LAYER=  2 ZONE=  2 ACTIVE CELLS= 1141 NUMBER OF EQUATIONS=    1141

 SOLVING FOR HEAD 

 NO OUTPUT CONTROL FOR STRESS PERIOD    1   TIME STEP  473
 SOLVING FOR ZETA FOR LAYER     1 ZONE     2

     601 UPPER PART EQS.       606 LOWER PART EQS.    BAND WIDTH + 1 =   30
 STRESS PERIOD=  1 TIMESTEP=473 LAYER=  1 ZONE=  2 ACTIVE CELLS= 1207 NUMBER OF EQUATIONS=    1207
 SOLVING FOR ZETA FOR LAYER     2 ZONE     2

     574 UPPER PART EQS.       572 LOWER PART EQS.    BAND WIDTH + 1 =   33
 STRESS PERIOD=  1 TIMESTEP=473 LAYER=  2 ZONE=  2 ACTIVE CELLS= 1146 NUMBER OF EQUATIONS=    1146

 SOLVING FOR HEAD 

 NO OUTPUT CONTROL FOR STRESS PERIOD    1   TIME STEP  474
 SOLVING FOR ZETA FOR LAYER     1 ZONE     2

     608 UPPER PART EQS.       606 LOWER PART EQS.    BAND WIDTH + 1 =   24
 STRESS PERIOD=  1 TIMESTEP=474 LAYER=  1 ZONE=  2 ACTIVE CELLS= 1214 NUMBER OF EQUATIONS=    1214
 SOLVING FOR ZETA FOR LAYER     2 ZONE     2

     569 UPPER PART EQS.       568 LOWER PART EQS.    BAND WIDTH + 1 =   33
 STRESS PERIOD=  1 TIMESTEP=474 LAYER=  2 ZONE=  2 ACTIVE CELLS= 1137 NUMBER OF EQUATIONS=    1137

 SOLVING FOR HEAD 

 NO OUTPUT CONTROL FOR STRESS PERIOD    1   TIME STEP  475
 SOLVING FOR ZETA FOR LAYER     1 ZONE     2

     612 UPPER PART EQS.       604 LOWER PART EQS.    BAND WIDTH + 1 =   26
 STRESS PERIOD=  1 TIMESTEP=475 LAYER=  1 ZONE=  2 ACTIVE CELLS= 1216 NUMBER OF EQUATIONS=    1216
 SOLVING FOR ZETA FOR LAYER     2 ZONE     2

     577 UPPER PART EQS.       566 LOWER PART EQS.    BAND WIDTH + 1 =   34
 STRESS PERIOD=  1 TIMESTEP=475 LAYER=  2 ZONE=  2 ACTIVE CELLS= 1143 NUMBER OF EQUATIONS=    1143

 SOLVING FOR HEAD 

 NO OUTPUT CONTROL FOR STRESS PERIOD    1   TIME STEP  476
 SOLVING FOR ZETA FOR LAYER     1 ZONE     2

     593 UPPER PART EQS.       602 LOWER PART EQS.    BAND WIDTH + 1 =   35
 STRESS PERIOD=  1 TIMESTEP=476 LAYER=  1 ZONE=  2 ACTIVE CELLS= 1195 NUMBER OF EQUATIONS=    1195
 SOLVING FOR ZETA FOR LAYER     2 ZONE     2

     571 UPPER PART EQS.       566 LOWER PART EQS.    BAND WIDTH + 1 =   34
 STRESS PERIOD=  1 TIMESTEP=476 LAYER=  2 ZONE=  2 ACTIVE CELLS= 1137 NUMBER OF EQUATIONS=    1137

 SOLVING FOR HEAD 

 NO OUTPUT CONTROL FOR STRESS PERIOD    1   TIME STEP  477
 SOLVING FOR ZETA FOR LAYER     1 ZONE     2

     593 UPPER PART EQS.       602 LOWER PART EQS.    BAND WIDTH + 1 =   27
 STRESS PERIOD=  1 TIMESTEP=477 LAYER=  1 ZONE=  2 ACTIVE CELLS= 1195 NUMBER OF EQUATIONS=    1195
 SOLVING FOR ZETA FOR LAYER     2 ZONE     2

     583 UPPER PART EQS.       572 LOWER PART EQS.    BAND WIDTH + 1 =   34
 STRESS PERIOD=  1 TIMESTEP=477 LAYER=  2 ZONE=  2 ACTIVE CELLS= 1155 NUMBER OF EQUATIONS=    1155

 SOLVING FOR HEAD 

 NO OUTPUT CONTROL FOR STRESS PERIOD    1   TIME STEP  478
 SOLVING FOR ZETA FOR LAYER     1 ZONE     2

     610 UPPER PART EQS.       621 LOWER PART EQS.    BAND WIDTH + 1 =   36
 STRESS PERIOD=  1 TIMESTEP=478 LAYER=  1 ZONE=  2 ACTIVE CELLS= 1231 NUMBER OF EQUATIONS=    1231
 SOLVING FOR ZETA FOR LAYER     2 ZONE     2

     583 UPPER PART EQS.       572 LOWER PART EQS.    BAND WIDTH + 1 =   34
 STRESS PERIOD=  1 TIMESTEP=478 LAYER=  2 ZONE=  2 ACTIVE CELLS= 1155 NUMBER OF EQUATIONS=    1155

 SOLVING FOR HEAD 

 NO OUTPUT CONTROL FOR STRESS PERIOD    1   TIME STEP  479
 SOLVING FOR ZETA FOR LAYER     1 ZONE     2

     608 UPPER PART EQS.       597 LOWER PART EQS.    BAND WIDTH + 1 =   27
 STRESS PERIOD=  1 TIMESTEP=479 LAYER=  1 ZONE=  2 ACTIVE CELLS= 1205 NUMBER OF EQUATIONS=    1205
 SOLVING FOR ZETA FOR LAYER     2 ZONE     2

     583 UPPER PART EQS.       568 LOWER PART EQS.    BAND WIDTH + 1 =   34
 STRESS PERIOD=  1 TIMESTEP=479 LAYER=  2 ZONE=  2 ACTIVE CELLS= 1151 NUMBER OF EQUATIONS=    1151

 SOLVING FOR HEAD 

 NO OUTPUT CONTROL FOR STRESS PERIOD    1   TIME STEP  480
 SOLVING FOR ZETA FOR LAYER     1 ZONE     2

     609 UPPER PART EQS.       598 LOWER PART EQS.    BAND WIDTH + 1 =   30
 STRESS PERIOD=  1 TIMESTEP=480 LAYER=  1 ZONE=  2 ACTIVE CELLS= 1207 NUMBER OF EQUATIONS=    1207
 SOLVING FOR ZETA FOR LAYER     2 ZONE     2

     589 UPPER PART EQS.       566 LOWER PART EQS.    BAND WIDTH + 1 =   34
 STRESS PERIOD=  1 TIMESTEP=480 LAYER=  2 ZONE=  2 ACTIVE CELLS= 1155 NUMBER OF EQUATIONS=    1155

 SOLVING FOR HEAD 

 NO OUTPUT CONTROL FOR STRESS PERIOD    1   TIME STEP  481
 SOLVING FOR ZETA FOR LAYER     1 ZONE     2

     593 UPPER PART EQS.       608 LOWER PART EQS.    BAND WIDTH + 1 =   34
 STRESS PERIOD=  1 TIMESTEP=481 LAYER=  1 ZONE=  2 ACTIVE CELLS= 1201 NUMBER OF EQUATIONS=    1201
 SOLVING FOR ZETA FOR LAYER     2 ZONE     2

     581 UPPER PART EQS.       566 LOWER PART EQS.    BAND WIDTH + 1 =   34
 STRESS PERIOD=  1 TIMESTEP=481 LAYER=  2 ZONE=  2 ACTIVE CELLS= 1147 NUMBER OF EQUATIONS=    1147

 SOLVING FOR HEAD 

 NO OUTPUT CONTROL FOR STRESS PERIOD    1   TIME STEP  482
 SOLVING FOR ZETA FOR LAYER     1 ZONE     2

     604 UPPER PART EQS.       607 LOWER PART EQS.    BAND WIDTH + 1 =   32
 STRESS PERIOD=  1 TIMESTEP=482 LAYER=  1 ZONE=  2 ACTIVE CELLS= 1211 NUMBER OF EQUATIONS=    1211
 SOLVING FOR ZETA FOR LAYER     2 ZONE     2

     589 UPPER PART EQS.       572 LOWER PART EQS.    BAND WIDTH + 1 =   34
 STRESS PERIOD=  1 TIMESTEP=482 LAYER=  2 ZONE=  2 ACTIVE CELLS= 1161 NUMBER OF EQUATIONS=    1161

 SOLVING FOR HEAD 

 NO OUTPUT CONTROL FOR STRESS PERIOD    1   TIME STEP  483
 SOLVING FOR ZETA FOR LAYER     1 ZONE     2

     594 UPPER PART EQS.       597 LOWER PART EQS.    BAND WIDTH + 1 =   23
 STRESS PERIOD=  1 TIMESTEP=483 LAYER=  1 ZONE=  2 ACTIVE CELLS= 1191 NUMBER OF EQUATIONS=    1191
 SOLVING FOR ZETA FOR LAYER     2 ZONE     2

     583 UPPER PART EQS.       572 LOWER PART EQS.    BAND WIDTH + 1 =   34
 STRESS PERIOD=  1 TIMESTEP=483 LAYER=  2 ZONE=  2 ACTIVE CELLS= 1155 NUMBER OF EQUATIONS=    1155

 SOLVING FOR HEAD 

 NO OUTPUT CONTROL FOR STRESS PERIOD    1   TIME STEP  484
 SOLVING FOR ZETA FOR LAYER     1 ZONE     2

     617 UPPER PART EQS.       619 LOWER PART EQS.    BAND WIDTH + 1 =   29
 STRESS PERIOD=  1 TIMESTEP=484 LAYER=  1 ZONE=  2 ACTIVE CELLS= 1236 NUMBER OF EQUATIONS=    1236
 SOLVING FOR ZETA FOR LAYER     2 ZONE     2

     583 UPPER PART EQS.       568 LOWER PART EQS.    BAND WIDTH + 1 =   34
 STRESS PERIOD=  1 TIMESTEP=484 LAYER=  2 ZONE=  2 ACTIVE CELLS= 1151 NUMBER OF EQUATIONS=    1151

 SOLVING FOR HEAD 

 NO OUTPUT CONTROL FOR STRESS PERIOD    1   TIME STEP  485
 SOLVING FOR ZETA FOR LAYER     1 ZONE     2

     607 UPPER PART EQS.       595 LOWER PART EQS.    BAND WIDTH + 1 =   27
 STRESS PERIOD=  1 TIMESTEP=485 LAYER=  1 ZONE=  2 ACTIVE CELLS= 1202 NUMBER OF EQUATIONS=    1202
 SOLVING FOR ZETA FOR LAYER     2 ZONE     2

     589 UPPER PART EQS.       566 LOWER PART EQS.    BAND WIDTH + 1 =   34
 STRESS PERIOD=  1 TIMESTEP=485 LAYER=  2 ZONE=  2 ACTIVE CELLS= 1155 NUMBER OF EQUATIONS=    1155

 SOLVING FOR HEAD 

 NO OUTPUT CONTROL FOR STRESS PERIOD    1   TIME STEP  486
 SOLVING FOR ZETA FOR LAYER     1 ZONE     2

     600 UPPER PART EQS.       607 LOWER PART EQS.    BAND WIDTH + 1 =   28
 STRESS PERIOD=  1 TIMESTEP=486 LAYER=  1 ZONE=  2 ACTIVE CELLS= 1207 NUMBER OF EQUATIONS=    1207
 SOLVING FOR ZETA FOR LAYER     2 ZONE     2

     581 UPPER PART EQS.       566 LOWER PART EQS.    BAND WIDTH + 1 =   34
 STRESS PERIOD=  1 TIMESTEP=486 LAYER=  2 ZONE=  2 ACTIVE CELLS= 1147 NUMBER OF EQUATIONS=    1147

 SOLVING FOR HEAD 

 NO OUTPUT CONTROL FOR STRESS PERIOD    1   TIME STEP  487
 SOLVING FOR ZETA FOR LAYER     1 ZONE     2

     596 UPPER PART EQS.       607 LOWER PART EQS.    BAND WIDTH + 1 =   31
 STRESS PERIOD=  1 TIMESTEP=487 LAYER=  1 ZONE=  2 ACTIVE CELLS= 1203 NUMBER OF EQUATIONS=    1203
 SOLVING FOR ZETA FOR LAYER     2 ZONE     2

     589 UPPER PART EQS.       572 LOWER PART EQS.    BAND WIDTH + 1 =   34
 STRESS PERIOD=  1 TIMESTEP=487 LAYER=  2 ZONE=  2 ACTIVE CELLS= 1161 NUMBER OF EQUATIONS=    1161

 SOLVING FOR HEAD 

 NO OUTPUT CONTROL FOR STRESS PERIOD    1   TIME STEP  488
 SOLVING FOR ZETA FOR LAYER     1 ZONE     2

     615 UPPER PART EQS.       610 LOWER PART EQS.    BAND WIDTH + 1 =   25
 STRESS PERIOD=  1 TIMESTEP=488 LAYER=  1 ZONE=  2 ACTIVE CELLS= 1225 NUMBER OF EQUATIONS=    1225
 SOLVING FOR ZETA FOR LAYER     2 ZONE     2

     583 UPPER PART EQS.       572 LOWER PART EQS.    BAND WIDTH + 1 =   34
 STRESS PERIOD=  1 TIMESTEP=488 LAYER=  2 ZONE=  2 ACTIVE CELLS= 1155 NUMBER OF EQUATIONS=    1155

 SOLVING FOR HEAD 

 NO OUTPUT CONTROL FOR STRESS PERIOD    1   TIME STEP  489
 SOLVING FOR ZETA FOR LAYER     1 ZONE     2

     599 UPPER PART EQS.       607 LOWER PART EQS.    BAND WIDTH + 1 =   30
 STRESS PERIOD=  1 TIMESTEP=489 LAYER=  1 ZONE=  2 ACTIVE CELLS= 1206 NUMBER OF EQUATIONS=    1206
 SOLVING FOR ZETA FOR LAYER     2 ZONE     2

     585 UPPER PART EQS.       570 LOWER PART EQS.    BAND WIDTH + 1 =   34
 STRESS PERIOD=  1 TIMESTEP=489 LAYER=  2 ZONE=  2 ACTIVE CELLS= 1155 NUMBER OF EQUATIONS=    1155

 SOLVING FOR HEAD 

 NO OUTPUT CONTROL FOR STRESS PERIOD    1   TIME STEP  490
 SOLVING FOR ZETA FOR LAYER     1 ZONE     2

     610 UPPER PART EQS.       600 LOWER PART EQS.    BAND WIDTH + 1 =   26
 STRESS PERIOD=  1 TIMESTEP=490 LAYER=  1 ZONE=  2 ACTIVE CELLS= 1210 NUMBER OF EQUATIONS=    1210
 SOLVING FOR ZETA FOR LAYER     2 ZONE     2

     587 UPPER PART EQS.       564 LOWER PART EQS.    BAND WIDTH + 1 =   34
 STRESS PERIOD=  1 TIMESTEP=490 LAYER=  2 ZONE=  2 ACTIVE CELLS= 1151 NUMBER OF EQUATIONS=    1151

 SOLVING FOR HEAD 

 NO OUTPUT CONTROL FOR STRESS PERIOD    1   TIME STEP  491
 SOLVING FOR ZETA FOR LAYER     1 ZONE     2

     602 UPPER PART EQS.       599 LOWER PART EQS.    BAND WIDTH + 1 =   27
 STRESS PERIOD=  1 TIMESTEP=491 LAYER=  1 ZONE=  2 ACTIVE CELLS= 1201 NUMBER OF EQUATIONS=    1201
 SOLVING FOR ZETA FOR LAYER     2 ZONE     2

     583 UPPER PART EQS.       568 LOWER PART EQS.    BAND WIDTH + 1 =   34
 STRESS PERIOD=  1 TIMESTEP=491 LAYER=  2 ZONE=  2 ACTIVE CELLS= 1151 NUMBER OF EQUATIONS=    1151

 SOLVING FOR HEAD 

 NO OUTPUT CONTROL FOR STRESS PERIOD    1   TIME STEP  492
 SOLVING FOR ZETA FOR LAYER     1 ZONE     2

     614 UPPER PART EQS.       612 LOWER PART EQS.    BAND WIDTH + 1 =   24
 STRESS PERIOD=  1 TIMESTEP=492 LAYER=  1 ZONE=  2 ACTIVE CELLS= 1226 NUMBER OF EQUATIONS=    1226
 SOLVING FOR ZETA FOR LAYER     2 ZONE     2

     587 UPPER PART EQS.       570 LOWER PART EQS.    BAND WIDTH + 1 =   34
 STRESS PERIOD=  1 TIMESTEP=492 LAYER=  2 ZONE=  2 ACTIVE CELLS= 1157 NUMBER OF EQUATIONS=    1157

 SOLVING FOR HEAD 

 NO OUTPUT CONTROL FOR STRESS PERIOD    1   TIME STEP  493
 SOLVING FOR ZETA FOR LAYER     1 ZONE     2

     602 UPPER PART EQS.       610 LOWER PART EQS.    BAND WIDTH + 1 =   30
 STRESS PERIOD=  1 TIMESTEP=493 LAYER=  1 ZONE=  2 ACTIVE CELLS= 1212 NUMBER OF EQUATIONS=    1212
 SOLVING FOR ZETA FOR LAYER     2 ZONE     2

     583 UPPER PART EQS.       572 LOWER PART EQS.    BAND WIDTH + 1 =   34
 STRESS PERIOD=  1 TIMESTEP=493 LAYER=  2 ZONE=  2 ACTIVE CELLS= 1155 NUMBER OF EQUATIONS=    1155

 SOLVING FOR HEAD 

 NO OUTPUT CONTROL FOR STRESS PERIOD    1   TIME STEP  494
 SOLVING FOR ZETA FOR LAYER     1 ZONE     2

     600 UPPER PART EQS.       608 LOWER PART EQS.    BAND WIDTH + 1 =   34
 STRESS PERIOD=  1 TIMESTEP=494 LAYER=  1 ZONE=  2 ACTIVE CELLS= 1208 NUMBER OF EQUATIONS=    1208
 SOLVING FOR ZETA FOR LAYER     2 ZONE     2

     589 UPPER PART EQS.       570 LOWER PART EQS.    BAND WIDTH + 1 =   34
 STRESS PERIOD=  1 TIMESTEP=494 LAYER=  2 ZONE=  2 ACTIVE CELLS= 1159 NUMBER OF EQUATIONS=    1159

 SOLVING FOR HEAD 

 NO OUTPUT CONTROL FOR STRESS PERIOD    1   TIME STEP  495
 SOLVING FOR ZETA FOR LAYER     1 ZONE     2

     602 UPPER PART EQS.       598 LOWER PART EQS.    BAND WIDTH + 1 =   24
 STRESS PERIOD=  1 TIMESTEP=495 LAYER=  1 ZONE=  2 ACTIVE CELLS= 1200 NUMBER OF EQUATIONS=    1200
 SOLVING FOR ZETA FOR LAYER     2 ZONE     2

     585 UPPER PART EQS.       566 LOWER PART EQS.    BAND WIDTH + 1 =   34
 STRESS PERIOD=  1 TIMESTEP=495 LAYER=  2 ZONE=  2 ACTIVE CELLS= 1151 NUMBER OF EQUATIONS=    1151

 SOLVING FOR HEAD 

 NO OUTPUT CONTROL FOR STRESS PERIOD    1   TIME STEP  496
 SOLVING FOR ZETA FOR LAYER     1 ZONE     2

     616 UPPER PART EQS.       612 LOWER PART EQS.    BAND WIDTH + 1 =   24
 STRESS PERIOD=  1 TIMESTEP=496 LAYER=  1 ZONE=  2 ACTIVE CELLS= 1228 NUMBER OF EQUATIONS=    1228
 SOLVING FOR ZETA FOR LAYER     2 ZONE     2

     585 UPPER PART EQS.       570 LOWER PART EQS.    BAND WIDTH + 1 =   34
 STRESS PERIOD=  1 TIMESTEP=496 LAYER=  2 ZONE=  2 ACTIVE CELLS= 1155 NUMBER OF EQUATIONS=    1155

 SOLVING FOR HEAD 

 NO OUTPUT CONTROL FOR STRESS PERIOD    1   TIME STEP  497
 SOLVING FOR ZETA FOR LAYER     1 ZONE     2

     605 UPPER PART EQS.       608 LOWER PART EQS.    BAND WIDTH + 1 =   31
 STRESS PERIOD=  1 TIMESTEP=497 LAYER=  1 ZONE=  2 ACTIVE CELLS= 1213 NUMBER OF EQUATIONS=    1213
 SOLVING FOR ZETA FOR LAYER     2 ZONE     2

     585 UPPER PART EQS.       568 LOWER PART EQS.    BAND WIDTH + 1 =   34
 STRESS PERIOD=  1 TIMESTEP=497 LAYER=  2 ZONE=  2 ACTIVE CELLS= 1153 NUMBER OF EQUATIONS=    1153

 SOLVING FOR HEAD 

 NO OUTPUT CONTROL FOR STRESS PERIOD    1   TIME STEP  498
 SOLVING FOR ZETA FOR LAYER     1 ZONE     2

     603 UPPER PART EQS.       609 LOWER PART EQS.    BAND WIDTH + 1 =   29
 STRESS PERIOD=  1 TIMESTEP=498 LAYER=  1 ZONE=  2 ACTIVE CELLS= 1212 NUMBER OF EQUATIONS=    1212
 SOLVING FOR ZETA FOR LAYER     2 ZONE     2

     581 UPPER PART EQS.       578 LOWER PART EQS.    BAND WIDTH + 1 =   34
 STRESS PERIOD=  1 TIMESTEP=498 LAYER=  2 ZONE=  2 ACTIVE CELLS= 1159 NUMBER OF EQUATIONS=    1159

 SOLVING FOR HEAD 

 NO OUTPUT CONTROL FOR STRESS PERIOD    1   TIME STEP  499
 SOLVING FOR ZETA FOR LAYER     1 ZONE     2

     606 UPPER PART EQS.       604 LOWER PART EQS.    BAND WIDTH + 1 =   24
 STRESS PERIOD=  1 TIMESTEP=499 LAYER=  1 ZONE=  2 ACTIVE CELLS= 1210 NUMBER OF EQUATIONS=    1210
 SOLVING FOR ZETA FOR LAYER     2 ZONE     2

     589 UPPER PART EQS.       588 LOWER PART EQS.    BAND WIDTH + 1 =   34
 STRESS PERIOD=  1 TIMESTEP=499 LAYER=  2 ZONE=  2 ACTIVE CELLS= 1177 NUMBER OF EQUATIONS=    1177

 SOLVING FOR HEAD 

 NO OUTPUT CONTROL FOR STRESS PERIOD    1   TIME STEP  500
 SOLVING FOR ZETA FOR LAYER     1 ZONE     2

     613 UPPER PART EQS.       612 LOWER PART EQS.    BAND WIDTH + 1 =   28
 STRESS PERIOD=  1 TIMESTEP=500 LAYER=  1 ZONE=  2 ACTIVE CELLS= 1225 NUMBER OF EQUATIONS=    1225
 SOLVING FOR ZETA FOR LAYER     2 ZONE     2

     589 UPPER PART EQS.       586 LOWER PART EQS.    BAND WIDTH + 1 =   34
 STRESS PERIOD=  1 TIMESTEP=500 LAYER=  2 ZONE=  2 ACTIVE CELLS= 1175 NUMBER OF EQUATIONS=    1175

 SOLVING FOR HEAD 

 NO OUTPUT CONTROL FOR STRESS PERIOD    1   TIME STEP  501
 SOLVING FOR ZETA FOR LAYER     1 ZONE     2

     604 UPPER PART EQS.       603 LOWER PART EQS.    BAND WIDTH + 1 =   24
 STRESS PERIOD=  1 TIMESTEP=501 LAYER=  1 ZONE=  2 ACTIVE CELLS= 1207 NUMBER OF EQUATIONS=    1207
 SOLVING FOR ZETA FOR LAYER     2 ZONE     2

     585 UPPER PART EQS.       582 LOWER PART EQS.    BAND WIDTH + 1 =   34
 STRESS PERIOD=  1 TIMESTEP=501 LAYER=  2 ZONE=  2 ACTIVE CELLS= 1167 NUMBER OF EQUATIONS=    1167

 SOLVING FOR HEAD 

 NO OUTPUT CONTROL FOR STRESS PERIOD    1   TIME STEP  502
 SOLVING FOR ZETA FOR LAYER     1 ZONE     2

     610 UPPER PART EQS.       609 LOWER PART EQS.    BAND WIDTH + 1 =   25
 STRESS PERIOD=  1 TIMESTEP=502 LAYER=  1 ZONE=  2 ACTIVE CELLS= 1219 NUMBER OF EQUATIONS=    1219
 SOLVING FOR ZETA FOR LAYER     2 ZONE     2

     585 UPPER PART EQS.       586 LOWER PART EQS.    BAND WIDTH + 1 =   34
 STRESS PERIOD=  1 TIMESTEP=502 LAYER=  2 ZONE=  2 ACTIVE CELLS= 1171 NUMBER OF EQUATIONS=    1171

 SOLVING FOR HEAD 

 NO OUTPUT CONTROL FOR STRESS PERIOD    1   TIME STEP  503
 SOLVING FOR ZETA FOR LAYER     1 ZONE     2

     598 UPPER PART EQS.       603 LOWER PART EQS.    BAND WIDTH + 1 =   31
 STRESS PERIOD=  1 TIMESTEP=503 LAYER=  1 ZONE=  2 ACTIVE CELLS= 1201 NUMBER OF EQUATIONS=    1201
 SOLVING FOR ZETA FOR LAYER     2 ZONE     2

     581 UPPER PART EQS.       576 LOWER PART EQS.    BAND WIDTH + 1 =   34
 STRESS PERIOD=  1 TIMESTEP=503 LAYER=  2 ZONE=  2 ACTIVE CELLS= 1157 NUMBER OF EQUATIONS=    1157

 SOLVING FOR HEAD 

 NO OUTPUT CONTROL FOR STRESS PERIOD    1   TIME STEP  504
 SOLVING FOR ZETA FOR LAYER     1 ZONE     2

     608 UPPER PART EQS.       612 LOWER PART EQS.    BAND WIDTH + 1 =   27
 STRESS PERIOD=  1 TIMESTEP=504 LAYER=  1 ZONE=  2 ACTIVE CELLS= 1220 NUMBER OF EQUATIONS=    1220
 SOLVING FOR ZETA FOR LAYER     2 ZONE     2

     585 UPPER PART EQS.       586 LOWER PART EQS.    BAND WIDTH + 1 =   34
 STRESS PERIOD=  1 TIMESTEP=504 LAYER=  2 ZONE=  2 ACTIVE CELLS= 1171 NUMBER OF EQUATIONS=    1171

 SOLVING FOR HEAD 

 NO OUTPUT CONTROL FOR STRESS PERIOD    1   TIME STEP  505
 SOLVING FOR ZETA FOR LAYER     1 ZONE     2

     605 UPPER PART EQS.       609 LOWER PART EQS.    BAND WIDTH + 1 =   28
 STRESS PERIOD=  1 TIMESTEP=505 LAYER=  1 ZONE=  2 ACTIVE CELLS= 1214 NUMBER OF EQUATIONS=    1214
 SOLVING FOR ZETA FOR LAYER     2 ZONE     2

     589 UPPER PART EQS.       588 LOWER PART EQS.    BAND WIDTH + 1 =   34
 STRESS PERIOD=  1 TIMESTEP=505 LAYER=  2 ZONE=  2 ACTIVE CELLS= 1177 NUMBER OF EQUATIONS=    1177

 SOLVING FOR HEAD 

 NO OUTPUT CONTROL FOR STRESS PERIOD    1   TIME STEP  506
 SOLVING FOR ZETA FOR LAYER     1 ZONE     2

     607 UPPER PART EQS.       614 LOWER PART EQS.    BAND WIDTH + 1 =   33
 STRESS PERIOD=  1 TIMESTEP=506 LAYER=  1 ZONE=  2 ACTIVE CELLS= 1221 NUMBER OF EQUATIONS=    1221
 SOLVING FOR ZETA FOR LAYER     2 ZONE     2

     589 UPPER PART EQS.       586 LOWER PART EQS.    BAND WIDTH + 1 =   34
 STRESS PERIOD=  1 TIMESTEP=506 LAYER=  2 ZONE=  2 ACTIVE CELLS= 1175 NUMBER OF EQUATIONS=    1175

 SOLVING FOR HEAD 

 NO OUTPUT CONTROL FOR STRESS PERIOD    1   TIME STEP  507
 SOLVING FOR ZETA FOR LAYER     1 ZONE     2

     604 UPPER PART EQS.       596 LOWER PART EQS.    BAND WIDTH + 1 =   27
 STRESS PERIOD=  1 TIMESTEP=507 LAYER=  1 ZONE=  2 ACTIVE CELLS= 1200 NUMBER OF EQUATIONS=    1200
 SOLVING FOR ZETA FOR LAYER     2 ZONE     2

     587 UPPER PART EQS.       582 LOWER PART EQS.    BAND WIDTH + 1 =   34
 STRESS PERIOD=  1 TIMESTEP=507 LAYER=  2 ZONE=  2 ACTIVE CELLS= 1169 NUMBER OF EQUATIONS=    1169

 SOLVING FOR HEAD 

 NO OUTPUT CONTROL FOR STRESS PERIOD    1   TIME STEP  508
 SOLVING FOR ZETA FOR LAYER     1 ZONE     2

     612 UPPER PART EQS.       609 LOWER PART EQS.    BAND WIDTH + 1 =   24
 STRESS PERIOD=  1 TIMESTEP=508 LAYER=  1 ZONE=  2 ACTIVE CELLS= 1221 NUMBER OF EQUATIONS=    1221
 SOLVING FOR ZETA FOR LAYER     2 ZONE     2

     585 UPPER PART EQS.       580 LOWER PART EQS.    BAND WIDTH + 1 =   34
 STRESS PERIOD=  1 TIMESTEP=508 LAYER=  2 ZONE=  2 ACTIVE CELLS= 1165 NUMBER OF EQUATIONS=    1165

 SOLVING FOR HEAD 

 NO OUTPUT CONTROL FOR STRESS PERIOD    1   TIME STEP  509
 SOLVING FOR ZETA FOR LAYER     1 ZONE     2

     605 UPPER PART EQS.       612 LOWER PART EQS.    BAND WIDTH + 1 =   32
 STRESS PERIOD=  1 TIMESTEP=509 LAYER=  1 ZONE=  2 ACTIVE CELLS= 1217 NUMBER OF EQUATIONS=    1217
 SOLVING FOR ZETA FOR LAYER     2 ZONE     2

     579 UPPER PART EQS.       582 LOWER PART EQS.    BAND WIDTH + 1 =   34
 STRESS PERIOD=  1 TIMESTEP=509 LAYER=  2 ZONE=  2 ACTIVE CELLS= 1161 NUMBER OF EQUATIONS=    1161

 SOLVING FOR HEAD 

 NO OUTPUT CONTROL FOR STRESS PERIOD    1   TIME STEP  510
 SOLVING FOR ZETA FOR LAYER     1 ZONE     2

     604 UPPER PART EQS.       606 LOWER PART EQS.    BAND WIDTH + 1 =   28
 STRESS PERIOD=  1 TIMESTEP=510 LAYER=  1 ZONE=  2 ACTIVE CELLS= 1210 NUMBER OF EQUATIONS=    1210
 SOLVING FOR ZETA FOR LAYER     2 ZONE     2

     587 UPPER PART EQS.       588 LOWER PART EQS.    BAND WIDTH + 1 =   34
 STRESS PERIOD=  1 TIMESTEP=510 LAYER=  2 ZONE=  2 ACTIVE CELLS= 1175 NUMBER OF EQUATIONS=    1175

 SOLVING FOR HEAD 

 NO OUTPUT CONTROL FOR STRESS PERIOD    1   TIME STEP  511
 SOLVING FOR ZETA FOR LAYER     1 ZONE     2

     610 UPPER PART EQS.       594 LOWER PART EQS.    BAND WIDTH + 1 =   33
 STRESS PERIOD=  1 TIMESTEP=511 LAYER=  1 ZONE=  2 ACTIVE CELLS= 1204 NUMBER OF EQUATIONS=    1204
 SOLVING FOR ZETA FOR LAYER     2 ZONE     2

     587 UPPER PART EQS.       586 LOWER PART EQS.    BAND WIDTH + 1 =   34
 STRESS PERIOD=  1 TIMESTEP=511 LAYER=  2 ZONE=  2 ACTIVE CELLS= 1173 NUMBER OF EQUATIONS=    1173

 SOLVING FOR HEAD 

 NO OUTPUT CONTROL FOR STRESS PERIOD    1   TIME STEP  512
 SOLVING FOR ZETA FOR LAYER     1 ZONE     2

     609 UPPER PART EQS.       616 LOWER PART EQS.    BAND WIDTH + 1 =   33
 STRESS PERIOD=  1 TIMESTEP=512 LAYER=  1 ZONE=  2 ACTIVE CELLS= 1225 NUMBER OF EQUATIONS=    1225
 SOLVING FOR ZETA FOR LAYER     2 ZONE     2

     589 UPPER PART EQS.       588 LOWER PART EQS.    BAND WIDTH + 1 =   34
 STRESS PERIOD=  1 TIMESTEP=512 LAYER=  2 ZONE=  2 ACTIVE CELLS= 1177 NUMBER OF EQUATIONS=    1177

 SOLVING FOR HEAD 

 NO OUTPUT CONTROL FOR STRESS PERIOD    1   TIME STEP  513
 SOLVING FOR ZETA FOR LAYER     1 ZONE     2

     599 UPPER PART EQS.       601 LOWER PART EQS.    BAND WIDTH + 1 =   23
 STRESS PERIOD=  1 TIMESTEP=513 LAYER=  1 ZONE=  2 ACTIVE CELLS= 1200 NUMBER OF EQUATIONS=    1200
 SOLVING FOR ZETA FOR LAYER     2 ZONE     2

     589 UPPER PART EQS.       581 LOWER PART EQS.    BAND WIDTH + 1 =   34
 STRESS PERIOD=  1 TIMESTEP=513 LAYER=  2 ZONE=  2 ACTIVE CELLS= 1170 NUMBER OF EQUATIONS=    1170

 SOLVING FOR HEAD 

 NO OUTPUT CONTROL FOR STRESS PERIOD    1   TIME STEP  514
 SOLVING FOR ZETA FOR LAYER     1 ZONE     2

     608 UPPER PART EQS.       598 LOWER PART EQS.    BAND WIDTH + 1 =   27
 STRESS PERIOD=  1 TIMESTEP=514 LAYER=  1 ZONE=  2 ACTIVE CELLS= 1206 NUMBER OF EQUATIONS=    1206
 SOLVING FOR ZETA FOR LAYER     2 ZONE     2

     585 UPPER PART EQS.       577 LOWER PART EQS.    BAND WIDTH + 1 =   34
 STRESS PERIOD=  1 TIMESTEP=514 LAYER=  2 ZONE=  2 ACTIVE CELLS= 1162 NUMBER OF EQUATIONS=    1162

 SOLVING FOR HEAD 

 NO OUTPUT CONTROL FOR STRESS PERIOD    1   TIME STEP  515
 SOLVING FOR ZETA FOR LAYER     1 ZONE     2

     608 UPPER PART EQS.       598 LOWER PART EQS.    BAND WIDTH + 1 =   27
 STRESS PERIOD=  1 TIMESTEP=515 LAYER=  1 ZONE=  2 ACTIVE CELLS= 1206 NUMBER OF EQUATIONS=    1206
 SOLVING FOR ZETA FOR LAYER     2 ZONE     2

     585 UPPER PART EQS.       586 LOWER PART EQS.    BAND WIDTH + 1 =   34
 STRESS PERIOD=  1 TIMESTEP=515 LAYER=  2 ZONE=  2 ACTIVE CELLS= 1171 NUMBER OF EQUATIONS=    1171

 SOLVING FOR HEAD 

 NO OUTPUT CONTROL FOR STRESS PERIOD    1   TIME STEP  516
 SOLVING FOR ZETA FOR LAYER     1 ZONE     2

     613 UPPER PART EQS.       605 LOWER PART EQS.    BAND WIDTH + 1 =   27
 STRESS PERIOD=  1 TIMESTEP=516 LAYER=  1 ZONE=  2 ACTIVE CELLS= 1218 NUMBER OF EQUATIONS=    1218
 SOLVING FOR ZETA FOR LAYER     2 ZONE     2

     581 UPPER PART EQS.       583 LOWER PART EQS.    BAND WIDTH + 1 =   34
 STRESS PERIOD=  1 TIMESTEP=516 LAYER=  2 ZONE=  2 ACTIVE CELLS= 1164 NUMBER OF EQUATIONS=    1164

 SOLVING FOR HEAD 

 NO OUTPUT CONTROL FOR STRESS PERIOD    1   TIME STEP  517
 SOLVING FOR ZETA FOR LAYER     1 ZONE     2

     606 UPPER PART EQS.       600 LOWER PART EQS.    BAND WIDTH + 1 =   27
 STRESS PERIOD=  1 TIMESTEP=517 LAYER=  1 ZONE=  2 ACTIVE CELLS= 1206 NUMBER OF EQUATIONS=    1206
 SOLVING FOR ZETA FOR LAYER     2 ZONE     2

     587 UPPER PART EQS.       583 LOWER PART EQS.    BAND WIDTH + 1 =   34
 STRESS PERIOD=  1 TIMESTEP=517 LAYER=  2 ZONE=  2 ACTIVE CELLS= 1170 NUMBER OF EQUATIONS=    1170

 SOLVING FOR HEAD 

 NO OUTPUT CONTROL FOR STRESS PERIOD    1   TIME STEP  518
 SOLVING FOR ZETA FOR LAYER     1 ZONE     2

     602 UPPER PART EQS.       603 LOWER PART EQS.    BAND WIDTH + 1 =   27
 STRESS PERIOD=  1 TIMESTEP=518 LAYER=  1 ZONE=  2 ACTIVE CELLS= 1205 NUMBER OF EQUATIONS=    1205
 SOLVING FOR ZETA FOR LAYER     2 ZONE     2

     589 UPPER PART EQS.       588 LOWER PART EQS.    BAND WIDTH + 1 =   34
 STRESS PERIOD=  1 TIMESTEP=518 LAYER=  2 ZONE=  2 ACTIVE CELLS= 1177 NUMBER OF EQUATIONS=    1177

 SOLVING FOR HEAD 

 NO OUTPUT CONTROL FOR STRESS PERIOD    1   TIME STEP  519
 SOLVING FOR ZETA FOR LAYER     1 ZONE     2

     609 UPPER PART EQS.       596 LOWER PART EQS.    BAND WIDTH + 1 =   30
 STRESS PERIOD=  1 TIMESTEP=519 LAYER=  1 ZONE=  2 ACTIVE CELLS= 1205 NUMBER OF EQUATIONS=    1205
 SOLVING FOR ZETA FOR LAYER     2 ZONE     2

     587 UPPER PART EQS.       586 LOWER PART EQS.    BAND WIDTH + 1 =   34
 STRESS PERIOD=  1 TIMESTEP=519 LAYER=  2 ZONE=  2 ACTIVE CELLS= 1173 NUMBER OF EQUATIONS=    1173

 SOLVING FOR HEAD 

 NO OUTPUT CONTROL FOR STRESS PERIOD    1   TIME STEP  520
 SOLVING FOR ZETA FOR LAYER     1 ZONE     2

     615 UPPER PART EQS.       603 LOWER PART EQS.    BAND WIDTH + 1 =   29
 STRESS PERIOD=  1 TIMESTEP=520 LAYER=  1 ZONE=  2 ACTIVE CELLS= 1218 NUMBER OF EQUATIONS=    1218
 SOLVING FOR ZETA FOR LAYER     2 ZONE     2

     587 UPPER PART EQS.       574 LOWER PART EQS.    BAND WIDTH + 1 =   34
 STRESS PERIOD=  1 TIMESTEP=520 LAYER=  2 ZONE=  2 ACTIVE CELLS= 1161 NUMBER OF EQUATIONS=    1161

 SOLVING FOR HEAD 

 NO OUTPUT CONTROL FOR STRESS PERIOD    1   TIME STEP  521
 SOLVING FOR ZETA FOR LAYER     1 ZONE     2

     601 UPPER PART EQS.       606 LOWER PART EQS.    BAND WIDTH + 1 =   29
 STRESS PERIOD=  1 TIMESTEP=521 LAYER=  1 ZONE=  2 ACTIVE CELLS= 1207 NUMBER OF EQUATIONS=    1207
 SOLVING FOR ZETA FOR LAYER     2 ZONE     2

     585 UPPER PART EQS.       586 LOWER PART EQS.    BAND WIDTH + 1 =   34
 STRESS PERIOD=  1 TIMESTEP=521 LAYER=  2 ZONE=  2 ACTIVE CELLS= 1171 NUMBER OF EQUATIONS=    1171

 SOLVING FOR HEAD 

 NO OUTPUT CONTROL FOR STRESS PERIOD    1   TIME STEP  522
 SOLVING FOR ZETA FOR LAYER     1 ZONE     2

     606 UPPER PART EQS.       603 LOWER PART EQS.    BAND WIDTH + 1 =   25
 STRESS PERIOD=  1 TIMESTEP=522 LAYER=  1 ZONE=  2 ACTIVE CELLS= 1209 NUMBER OF EQUATIONS=    1209
 SOLVING FOR ZETA FOR LAYER     2 ZONE     2

     587 UPPER PART EQS.       588 LOWER PART EQS.    BAND WIDTH + 1 =   34
 STRESS PERIOD=  1 TIMESTEP=522 LAYER=  2 ZONE=  2 ACTIVE CELLS= 1175 NUMBER OF EQUATIONS=    1175

 SOLVING FOR HEAD 

 NO OUTPUT CONTROL FOR STRESS PERIOD    1   TIME STEP  523
 SOLVING FOR ZETA FOR LAYER     1 ZONE     2

     607 UPPER PART EQS.       597 LOWER PART EQS.    BAND WIDTH + 1 =   27
 STRESS PERIOD=  1 TIMESTEP=523 LAYER=  1 ZONE=  2 ACTIVE CELLS= 1204 NUMBER OF EQUATIONS=    1204
 SOLVING FOR ZETA FOR LAYER     2 ZONE     2

     583 UPPER PART EQS.       588 LOWER PART EQS.    BAND WIDTH + 1 =   34
 STRESS PERIOD=  1 TIMESTEP=523 LAYER=  2 ZONE=  2 ACTIVE CELLS= 1171 NUMBER OF EQUATIONS=    1171

 SOLVING FOR HEAD 

 NO OUTPUT CONTROL FOR STRESS PERIOD    1   TIME STEP  524
 SOLVING FOR ZETA FOR LAYER     1 ZONE     2

     607 UPPER PART EQS.       609 LOWER PART EQS.    BAND WIDTH + 1 =   30
 STRESS PERIOD=  1 TIMESTEP=524 LAYER=  1 ZONE=  2 ACTIVE CELLS= 1216 NUMBER OF EQUATIONS=    1216
 SOLVING FOR ZETA FOR LAYER     2 ZONE     2

     589 UPPER PART EQS.       584 LOWER PART EQS.    BAND WIDTH + 1 =   34
 STRESS PERIOD=  1 TIMESTEP=524 LAYER=  2 ZONE=  2 ACTIVE CELLS= 1173 NUMBER OF EQUATIONS=    1173

 SOLVING FOR HEAD 

 NO OUTPUT CONTROL FOR STRESS PERIOD    1   TIME STEP  525
 SOLVING FOR ZETA FOR LAYER     1 ZONE     2

     600 UPPER PART EQS.       601 LOWER PART EQS.    BAND WIDTH + 1 =   25
 STRESS PERIOD=  1 TIMESTEP=525 LAYER=  1 ZONE=  2 ACTIVE CELLS= 1201 NUMBER OF EQUATIONS=    1201
 SOLVING FOR ZETA FOR LAYER     2 ZONE     2

     589 UPPER PART EQS.       587 LOWER PART EQS.    BAND WIDTH + 1 =   34
 STRESS PERIOD=  1 TIMESTEP=525 LAYER=  2 ZONE=  2 ACTIVE CELLS= 1176 NUMBER OF EQUATIONS=    1176

 SOLVING FOR HEAD 

 NO OUTPUT CONTROL FOR STRESS PERIOD    1   TIME STEP  526
 SOLVING FOR ZETA FOR LAYER     1 ZONE     2

     604 UPPER PART EQS.       598 LOWER PART EQS.    BAND WIDTH + 1 =   24
 STRESS PERIOD=  1 TIMESTEP=526 LAYER=  1 ZONE=  2 ACTIVE CELLS= 1202 NUMBER OF EQUATIONS=    1202
 SOLVING FOR ZETA FOR LAYER     2 ZONE     2

     591 UPPER PART EQS.       577 LOWER PART EQS.    BAND WIDTH + 1 =   34
 STRESS PERIOD=  1 TIMESTEP=526 LAYER=  2 ZONE=  2 ACTIVE CELLS= 1168 NUMBER OF EQUATIONS=    1168

 SOLVING FOR HEAD 

 NO OUTPUT CONTROL FOR STRESS PERIOD    1   TIME STEP  527
 SOLVING FOR ZETA FOR LAYER     1 ZONE     2

     602 UPPER PART EQS.       605 LOWER PART EQS.    BAND WIDTH + 1 =   32
 STRESS PERIOD=  1 TIMESTEP=527 LAYER=  1 ZONE=  2 ACTIVE CELLS= 1207 NUMBER OF EQUATIONS=    1207
 SOLVING FOR ZETA FOR LAYER     2 ZONE     2

     595 UPPER PART EQS.       582 LOWER PART EQS.    BAND WIDTH + 1 =   34
 STRESS PERIOD=  1 TIMESTEP=527 LAYER=  2 ZONE=  2 ACTIVE CELLS= 1177 NUMBER OF EQUATIONS=    1177

 SOLVING FOR HEAD 

 NO OUTPUT CONTROL FOR STRESS PERIOD    1   TIME STEP  528
 SOLVING FOR ZETA FOR LAYER     1 ZONE     2

     613 UPPER PART EQS.       606 LOWER PART EQS.    BAND WIDTH + 1 =   27
 STRESS PERIOD=  1 TIMESTEP=528 LAYER=  1 ZONE=  2 ACTIVE CELLS= 1219 NUMBER OF EQUATIONS=    1219
 SOLVING FOR ZETA FOR LAYER     2 ZONE     2

     591 UPPER PART EQS.       584 LOWER PART EQS.    BAND WIDTH + 1 =   34
 STRESS PERIOD=  1 TIMESTEP=528 LAYER=  2 ZONE=  2 ACTIVE CELLS= 1175 NUMBER OF EQUATIONS=    1175

 SOLVING FOR HEAD 

 NO OUTPUT CONTROL FOR STRESS PERIOD    1   TIME STEP  529
 SOLVING FOR ZETA FOR LAYER     1 ZONE     2

     601 UPPER PART EQS.       599 LOWER PART EQS.    BAND WIDTH + 1 =   23
 STRESS PERIOD=  1 TIMESTEP=529 LAYER=  1 ZONE=  2 ACTIVE CELLS= 1200 NUMBER OF EQUATIONS=    1200
 SOLVING FOR ZETA FOR LAYER     2 ZONE     2

     597 UPPER PART EQS.       586 LOWER PART EQS.    BAND WIDTH + 1 =   34
 STRESS PERIOD=  1 TIMESTEP=529 LAYER=  2 ZONE=  2 ACTIVE CELLS= 1183 NUMBER OF EQUATIONS=    1183

 SOLVING FOR HEAD 

 NO OUTPUT CONTROL FOR STRESS PERIOD    1   TIME STEP  530
 SOLVING FOR ZETA FOR LAYER     1 ZONE     2

     594 UPPER PART EQS.       594 LOWER PART EQS.    BAND WIDTH + 1 =   27
 STRESS PERIOD=  1 TIMESTEP=530 LAYER=  1 ZONE=  2 ACTIVE CELLS= 1188 NUMBER OF EQUATIONS=    1188
 SOLVING FOR ZETA FOR LAYER     2 ZONE     2

     593 UPPER PART EQS.       588 LOWER PART EQS.    BAND WIDTH + 1 =   34
 STRESS PERIOD=  1 TIMESTEP=530 LAYER=  2 ZONE=  2 ACTIVE CELLS= 1181 NUMBER OF EQUATIONS=    1181

 SOLVING FOR HEAD 

 NO OUTPUT CONTROL FOR STRESS PERIOD    1   TIME STEP  531
 SOLVING FOR ZETA FOR LAYER     1 ZONE     2

     611 UPPER PART EQS.       598 LOWER PART EQS.    BAND WIDTH + 1 =   33
 STRESS PERIOD=  1 TIMESTEP=531 LAYER=  1 ZONE=  2 ACTIVE CELLS= 1209 NUMBER OF EQUATIONS=    1209
 SOLVING FOR ZETA FOR LAYER     2 ZONE     2

     589 UPPER PART EQS.       587 LOWER PART EQS.    BAND WIDTH + 1 =   34
 STRESS PERIOD=  1 TIMESTEP=531 LAYER=  2 ZONE=  2 ACTIVE CELLS= 1176 NUMBER OF EQUATIONS=    1176

 SOLVING FOR HEAD 

 NO OUTPUT CONTROL FOR STRESS PERIOD    1   TIME STEP  532
 SOLVING FOR ZETA FOR LAYER     1 ZONE     2

     605 UPPER PART EQS.       597 LOWER PART EQS.    BAND WIDTH + 1 =   26
 STRESS PERIOD=  1 TIMESTEP=532 LAYER=  1 ZONE=  2 ACTIVE CELLS= 1202 NUMBER OF EQUATIONS=    1202
 SOLVING FOR ZETA FOR LAYER     2 ZONE     2

     593 UPPER PART EQS.       584 LOWER PART EQS.    BAND WIDTH + 1 =   34
 STRESS PERIOD=  1 TIMESTEP=532 LAYER=  2 ZONE=  2 ACTIVE CELLS= 1177 NUMBER OF EQUATIONS=    1177

 SOLVING FOR HEAD 

 NO OUTPUT CONTROL FOR STRESS PERIOD    1   TIME STEP  533
 SOLVING FOR ZETA FOR LAYER     1 ZONE     2

     594 UPPER PART EQS.       604 LOWER PART EQS.    BAND WIDTH + 1 =   30
 STRESS PERIOD=  1 TIMESTEP=533 LAYER=  1 ZONE=  2 ACTIVE CELLS= 1198 NUMBER OF EQUATIONS=    1198
 SOLVING FOR ZETA FOR LAYER     2 ZONE     2

     597 UPPER PART EQS.       581 LOWER PART EQS.    BAND WIDTH + 1 =   34
 STRESS PERIOD=  1 TIMESTEP=533 LAYER=  2 ZONE=  2 ACTIVE CELLS= 1178 NUMBER OF EQUATIONS=    1178

 SOLVING FOR HEAD 

 NO OUTPUT CONTROL FOR STRESS PERIOD    1   TIME STEP  534
 SOLVING FOR ZETA FOR LAYER     1 ZONE     2

     600 UPPER PART EQS.       597 LOWER PART EQS.    BAND WIDTH + 1 =   24
 STRESS PERIOD=  1 TIMESTEP=534 LAYER=  1 ZONE=  2 ACTIVE CELLS= 1197 NUMBER OF EQUATIONS=    1197
 SOLVING FOR ZETA FOR LAYER     2 ZONE     2

     595 UPPER PART EQS.       584 LOWER PART EQS.    BAND WIDTH + 1 =   34
 STRESS PERIOD=  1 TIMESTEP=534 LAYER=  2 ZONE=  2 ACTIVE CELLS= 1179 NUMBER OF EQUATIONS=    1179

 SOLVING FOR HEAD 

 NO OUTPUT CONTROL FOR STRESS PERIOD    1   TIME STEP  535
 SOLVING FOR ZETA FOR LAYER     1 ZONE     2

     608 UPPER PART EQS.       591 LOWER PART EQS.    BAND WIDTH + 1 =   32
 STRESS PERIOD=  1 TIMESTEP=535 LAYER=  1 ZONE=  2 ACTIVE CELLS= 1199 NUMBER OF EQUATIONS=    1199
 SOLVING FOR ZETA FOR LAYER     2 ZONE     2

     591 UPPER PART EQS.       582 LOWER PART EQS.    BAND WIDTH + 1 =   34
 STRESS PERIOD=  1 TIMESTEP=535 LAYER=  2 ZONE=  2 ACTIVE CELLS= 1173 NUMBER OF EQUATIONS=    1173

 SOLVING FOR HEAD 

 NO OUTPUT CONTROL FOR STRESS PERIOD    1   TIME STEP  536
 SOLVING FOR ZETA FOR LAYER     1 ZONE     2

     603 UPPER PART EQS.       597 LOWER PART EQS.    BAND WIDTH + 1 =   26
 STRESS PERIOD=  1 TIMESTEP=536 LAYER=  1 ZONE=  2 ACTIVE CELLS= 1200 NUMBER OF EQUATIONS=    1200
 SOLVING FOR ZETA FOR LAYER     2 ZONE     2

     595 UPPER PART EQS.       588 LOWER PART EQS.    BAND WIDTH + 1 =   34
 STRESS PERIOD=  1 TIMESTEP=536 LAYER=  2 ZONE=  2 ACTIVE CELLS= 1183 NUMBER OF EQUATIONS=    1183

 SOLVING FOR HEAD 

 NO OUTPUT CONTROL FOR STRESS PERIOD    1   TIME STEP  537
 SOLVING FOR ZETA FOR LAYER     1 ZONE     2

     604 UPPER PART EQS.       602 LOWER PART EQS.    BAND WIDTH + 1 =   23
 STRESS PERIOD=  1 TIMESTEP=537 LAYER=  1 ZONE=  2 ACTIVE CELLS= 1206 NUMBER OF EQUATIONS=    1206
 SOLVING FOR ZETA FOR LAYER     2 ZONE     2

     593 UPPER PART EQS.       586 LOWER PART EQS.    BAND WIDTH + 1 =   34
 STRESS PERIOD=  1 TIMESTEP=537 LAYER=  2 ZONE=  2 ACTIVE CELLS= 1179 NUMBER OF EQUATIONS=    1179

 SOLVING FOR HEAD 

 NO OUTPUT CONTROL FOR STRESS PERIOD    1   TIME STEP  538
 SOLVING FOR ZETA FOR LAYER     1 ZONE     2

     595 UPPER PART EQS.       593 LOWER PART EQS.    BAND WIDTH + 1 =   24
 STRESS PERIOD=  1 TIMESTEP=538 LAYER=  1 ZONE=  2 ACTIVE CELLS= 1188 NUMBER OF EQUATIONS=    1188
 SOLVING FOR ZETA FOR LAYER     2 ZONE     2

     589 UPPER PART EQS.       586 LOWER PART EQS.    BAND WIDTH + 1 =   34
 STRESS PERIOD=  1 TIMESTEP=538 LAYER=  2 ZONE=  2 ACTIVE CELLS= 1175 NUMBER OF EQUATIONS=    1175

 SOLVING FOR HEAD 

 NO OUTPUT CONTROL FOR STRESS PERIOD    1   TIME STEP  539
 SOLVING FOR ZETA FOR LAYER     1 ZONE     2

     604 UPPER PART EQS.       593 LOWER PART EQS.    BAND WIDTH + 1 =   26
 STRESS PERIOD=  1 TIMESTEP=539 LAYER=  1 ZONE=  2 ACTIVE CELLS= 1197 NUMBER OF EQUATIONS=    1197
 SOLVING FOR ZETA FOR LAYER     2 ZONE     2

     597 UPPER PART EQS.       584 LOWER PART EQS.    BAND WIDTH + 1 =   34
 STRESS PERIOD=  1 TIMESTEP=539 LAYER=  2 ZONE=  2 ACTIVE CELLS= 1181 NUMBER OF EQUATIONS=    1181

 SOLVING FOR HEAD 

 NO OUTPUT CONTROL FOR STRESS PERIOD    1   TIME STEP  540
 SOLVING FOR ZETA FOR LAYER     1 ZONE     2

     607 UPPER PART EQS.       595 LOWER PART EQS.    BAND WIDTH + 1 =   30
 STRESS PERIOD=  1 TIMESTEP=540 LAYER=  1 ZONE=  2 ACTIVE CELLS= 1202 NUMBER OF EQUATIONS=    1202
 SOLVING FOR ZETA FOR LAYER     2 ZONE     2

     597 UPPER PART EQS.       582 LOWER PART EQS.    BAND WIDTH + 1 =   34
 STRESS PERIOD=  1 TIMESTEP=540 LAYER=  2 ZONE=  2 ACTIVE CELLS= 1179 NUMBER OF EQUATIONS=    1179

 SOLVING FOR HEAD 

 NO OUTPUT CONTROL FOR STRESS PERIOD    1   TIME STEP  541
 SOLVING FOR ZETA FOR LAYER     1 ZONE     2

     607 UPPER PART EQS.       600 LOWER PART EQS.    BAND WIDTH + 1 =   25
 STRESS PERIOD=  1 TIMESTEP=541 LAYER=  1 ZONE=  2 ACTIVE CELLS= 1207 NUMBER OF EQUATIONS=    1207
 SOLVING FOR ZETA FOR LAYER     2 ZONE     2

     593 UPPER PART EQS.       587 LOWER PART EQS.    BAND WIDTH + 1 =   34
 STRESS PERIOD=  1 TIMESTEP=541 LAYER=  2 ZONE=  2 ACTIVE CELLS= 1180 NUMBER OF EQUATIONS=    1180

 SOLVING FOR HEAD 

 NO OUTPUT CONTROL FOR STRESS PERIOD    1   TIME STEP  542
 SOLVING FOR ZETA FOR LAYER     1 ZONE     2

     587 UPPER PART EQS.       586 LOWER PART EQS.    BAND WIDTH + 1 =   22
 STRESS PERIOD=  1 TIMESTEP=542 LAYER=  1 ZONE=  2 ACTIVE CELLS= 1173 NUMBER OF EQUATIONS=    1173
 SOLVING FOR ZETA FOR LAYER     2 ZONE     2

     593 UPPER PART EQS.       588 LOWER PART EQS.    BAND WIDTH + 1 =   34
 STRESS PERIOD=  1 TIMESTEP=542 LAYER=  2 ZONE=  2 ACTIVE CELLS= 1181 NUMBER OF EQUATIONS=    1181

 SOLVING FOR HEAD 

 NO OUTPUT CONTROL FOR STRESS PERIOD    1   TIME STEP  543
 SOLVING FOR ZETA FOR LAYER     1 ZONE     2

     605 UPPER PART EQS.       587 LOWER PART EQS.    BAND WIDTH + 1 =   34
 STRESS PERIOD=  1 TIMESTEP=543 LAYER=  1 ZONE=  2 ACTIVE CELLS= 1192 NUMBER OF EQUATIONS=    1192
 SOLVING FOR ZETA FOR LAYER     2 ZONE     2

     589 UPPER PART EQS.       588 LOWER PART EQS.    BAND WIDTH + 1 =   34
 STRESS PERIOD=  1 TIMESTEP=543 LAYER=  2 ZONE=  2 ACTIVE CELLS= 1177 NUMBER OF EQUATIONS=    1177

 SOLVING FOR HEAD 

 NO OUTPUT CONTROL FOR STRESS PERIOD    1   TIME STEP  544
 SOLVING FOR ZETA FOR LAYER     1 ZONE     2

     608 UPPER PART EQS.       601 LOWER PART EQS.    BAND WIDTH + 1 =   26
 STRESS PERIOD=  1 TIMESTEP=544 LAYER=  1 ZONE=  2 ACTIVE CELLS= 1209 NUMBER OF EQUATIONS=    1209
 SOLVING FOR ZETA FOR LAYER     2 ZONE     2

     593 UPPER PART EQS.       583 LOWER PART EQS.    BAND WIDTH + 1 =   34
 STRESS PERIOD=  1 TIMESTEP=544 LAYER=  2 ZONE=  2 ACTIVE CELLS= 1176 NUMBER OF EQUATIONS=    1176

 SOLVING FOR HEAD 

 NO OUTPUT CONTROL FOR STRESS PERIOD    1   TIME STEP  545
 SOLVING FOR ZETA FOR LAYER     1 ZONE     2

     604 UPPER PART EQS.       598 LOWER PART EQS.    BAND WIDTH + 1 =   25
 STRESS PERIOD=  1 TIMESTEP=545 LAYER=  1 ZONE=  2 ACTIVE CELLS= 1202 NUMBER OF EQUATIONS=    1202
 SOLVING FOR ZETA FOR LAYER     2 ZONE     2

     597 UPPER PART EQS.       586 LOWER PART EQS.    BAND WIDTH + 1 =   34
 STRESS PERIOD=  1 TIMESTEP=545 LAYER=  2 ZONE=  2 ACTIVE CELLS= 1183 NUMBER OF EQUATIONS=    1183

 SOLVING FOR HEAD 

 NO OUTPUT CONTROL FOR STRESS PERIOD    1   TIME STEP  546
 SOLVING FOR ZETA FOR LAYER     1 ZONE     2

     599 UPPER PART EQS.       594 LOWER PART EQS.    BAND WIDTH + 1 =   27
 STRESS PERIOD=  1 TIMESTEP=546 LAYER=  1 ZONE=  2 ACTIVE CELLS= 1193 NUMBER OF EQUATIONS=    1193
 SOLVING FOR ZETA FOR LAYER     2 ZONE     2

     597 UPPER PART EQS.       584 LOWER PART EQS.    BAND WIDTH + 1 =   34
 STRESS PERIOD=  1 TIMESTEP=546 LAYER=  2 ZONE=  2 ACTIVE CELLS= 1181 NUMBER OF EQUATIONS=    1181

 SOLVING FOR HEAD 

 NO OUTPUT CONTROL FOR STRESS PERIOD    1   TIME STEP  547
 SOLVING FOR ZETA FOR LAYER     1 ZONE     2

     606 UPPER PART EQS.       591 LOWER PART EQS.    BAND WIDTH + 1 =   34
 STRESS PERIOD=  1 TIMESTEP=547 LAYER=  1 ZONE=  2 ACTIVE CELLS= 1197 NUMBER OF EQUATIONS=    1197
 SOLVING FOR ZETA FOR LAYER     2 ZONE     2

     595 UPPER PART EQS.       580 LOWER PART EQS.    BAND WIDTH + 1 =   34
 STRESS PERIOD=  1 TIMESTEP=547 LAYER=  2 ZONE=  2 ACTIVE CELLS= 1175 NUMBER OF EQUATIONS=    1175

 SOLVING FOR HEAD 

 NO OUTPUT CONTROL FOR STRESS PERIOD    1   TIME STEP  548
 SOLVING FOR ZETA FOR LAYER     1 ZONE     2

     599 UPPER PART EQS.       588 LOWER PART EQS.    BAND WIDTH + 1 =   27
 STRESS PERIOD=  1 TIMESTEP=548 LAYER=  1 ZONE=  2 ACTIVE CELLS= 1187 NUMBER OF EQUATIONS=    1187
 SOLVING FOR ZETA FOR LAYER     2 ZONE     2

     595 UPPER PART EQS.       588 LOWER PART EQS.    BAND WIDTH + 1 =   34
 STRESS PERIOD=  1 TIMESTEP=548 LAYER=  2 ZONE=  2 ACTIVE CELLS= 1183 NUMBER OF EQUATIONS=    1183

 SOLVING FOR HEAD 

 NO OUTPUT CONTROL FOR STRESS PERIOD    1   TIME STEP  549
 SOLVING FOR ZETA FOR LAYER     1 ZONE     2

     610 UPPER PART EQS.       596 LOWER PART EQS.    BAND WIDTH + 1 =   33
 STRESS PERIOD=  1 TIMESTEP=549 LAYER=  1 ZONE=  2 ACTIVE CELLS= 1206 NUMBER OF EQUATIONS=    1206
 SOLVING FOR ZETA FOR LAYER     2 ZONE     2

     595 UPPER PART EQS.       586 LOWER PART EQS.    BAND WIDTH + 1 =   34
 STRESS PERIOD=  1 TIMESTEP=549 LAYER=  2 ZONE=  2 ACTIVE CELLS= 1181 NUMBER OF EQUATIONS=    1181

 SOLVING FOR HEAD 

 NO OUTPUT CONTROL FOR STRESS PERIOD    1   TIME STEP  550
 SOLVING FOR ZETA FOR LAYER     1 ZONE     2

     598 UPPER PART EQS.       591 LOWER PART EQS.    BAND WIDTH + 1 =   26
 STRESS PERIOD=  1 TIMESTEP=550 LAYER=  1 ZONE=  2 ACTIVE CELLS= 1189 NUMBER OF EQUATIONS=    1189
 SOLVING FOR ZETA FOR LAYER     2 ZONE     2

     595 UPPER PART EQS.       588 LOWER PART EQS.    BAND WIDTH + 1 =   34
 STRESS PERIOD=  1 TIMESTEP=550 LAYER=  2 ZONE=  2 ACTIVE CELLS= 1183 NUMBER OF EQUATIONS=    1183

 SOLVING FOR HEAD 

 NO OUTPUT CONTROL FOR STRESS PERIOD    1   TIME STEP  551
 SOLVING FOR ZETA FOR LAYER     1 ZONE     2

     605 UPPER PART EQS.       589 LOWER PART EQS.    BAND WIDTH + 1 =   32
 STRESS PERIOD=  1 TIMESTEP=551 LAYER=  1 ZONE=  2 ACTIVE CELLS= 1194 NUMBER OF EQUATIONS=    1194
 SOLVING FOR ZETA FOR LAYER     2 ZONE     2

     593 UPPER PART EQS.       588 LOWER PART EQS.    BAND WIDTH + 1 =   34
 STRESS PERIOD=  1 TIMESTEP=551 LAYER=  2 ZONE=  2 ACTIVE CELLS= 1181 NUMBER OF EQUATIONS=    1181

 SOLVING FOR HEAD 

 NO OUTPUT CONTROL FOR STRESS PERIOD    1   TIME STEP  552
 SOLVING FOR ZETA FOR LAYER     1 ZONE     2

     600 UPPER PART EQS.       592 LOWER PART EQS.    BAND WIDTH + 1 =   28
 STRESS PERIOD=  1 TIMESTEP=552 LAYER=  1 ZONE=  2 ACTIVE CELLS= 1192 NUMBER OF EQUATIONS=    1192
 SOLVING FOR ZETA FOR LAYER     2 ZONE     2

     589 UPPER PART EQS.       588 LOWER PART EQS.    BAND WIDTH + 1 =   34
 STRESS PERIOD=  1 TIMESTEP=552 LAYER=  2 ZONE=  2 ACTIVE CELLS= 1177 NUMBER OF EQUATIONS=    1177

 SOLVING FOR HEAD 

 NO OUTPUT CONTROL FOR STRESS PERIOD    1   TIME STEP  553
 SOLVING FOR ZETA FOR LAYER     1 ZONE     2

     607 UPPER PART EQS.       595 LOWER PART EQS.    BAND WIDTH + 1 =   29
 STRESS PERIOD=  1 TIMESTEP=553 LAYER=  1 ZONE=  2 ACTIVE CELLS= 1202 NUMBER OF EQUATIONS=    1202
 SOLVING FOR ZETA FOR LAYER     2 ZONE     2

     597 UPPER PART EQS.       588 LOWER PART EQS.    BAND WIDTH + 1 =   34
 STRESS PERIOD=  1 TIMESTEP=553 LAYER=  2 ZONE=  2 ACTIVE CELLS= 1185 NUMBER OF EQUATIONS=    1185

 SOLVING FOR HEAD 

 NO OUTPUT CONTROL FOR STRESS PERIOD    1   TIME STEP  554
 SOLVING FOR ZETA FOR LAYER     1 ZONE     2

     594 UPPER PART EQS.       587 LOWER PART EQS.    BAND WIDTH + 1 =   25
 STRESS PERIOD=  1 TIMESTEP=554 LAYER=  1 ZONE=  2 ACTIVE CELLS= 1181 NUMBER OF EQUATIONS=    1181
 SOLVING FOR ZETA FOR LAYER     2 ZONE     2

     597 UPPER PART EQS.       582 LOWER PART EQS.    BAND WIDTH + 1 =   34
 STRESS PERIOD=  1 TIMESTEP=554 LAYER=  2 ZONE=  2 ACTIVE CELLS= 1179 NUMBER OF EQUATIONS=    1179

 SOLVING FOR HEAD 

 NO OUTPUT CONTROL FOR STRESS PERIOD    1   TIME STEP  555
 SOLVING FOR ZETA FOR LAYER     1 ZONE     2

     610 UPPER PART EQS.       590 LOWER PART EQS.    BAND WIDTH + 1 =   37
 STRESS PERIOD=  1 TIMESTEP=555 LAYER=  1 ZONE=  2 ACTIVE CELLS= 1200 NUMBER OF EQUATIONS=    1200
 SOLVING FOR ZETA FOR LAYER     2 ZONE     2

     593 UPPER PART EQS.       580 LOWER PART EQS.    BAND WIDTH + 1 =   34
 STRESS PERIOD=  1 TIMESTEP=555 LAYER=  2 ZONE=  2 ACTIVE CELLS= 1173 NUMBER OF EQUATIONS=    1173

 SOLVING FOR HEAD 

 NO OUTPUT CONTROL FOR STRESS PERIOD    1   TIME STEP  556
 SOLVING FOR ZETA FOR LAYER     1 ZONE     2

     605 UPPER PART EQS.       596 LOWER PART EQS.    BAND WIDTH + 1 =   29
 STRESS PERIOD=  1 TIMESTEP=556 LAYER=  1 ZONE=  2 ACTIVE CELLS= 1201 NUMBER OF EQUATIONS=    1201
 SOLVING FOR ZETA FOR LAYER     2 ZONE     2

     595 UPPER PART EQS.       588 LOWER PART EQS.    BAND WIDTH + 1 =   34
 STRESS PERIOD=  1 TIMESTEP=556 LAYER=  2 ZONE=  2 ACTIVE CELLS= 1183 NUMBER OF EQUATIONS=    1183

 SOLVING FOR HEAD 

 NO OUTPUT CONTROL FOR STRESS PERIOD    1   TIME STEP  557
 SOLVING FOR ZETA FOR LAYER     1 ZONE     2

     601 UPPER PART EQS.       598 LOWER PART EQS.    BAND WIDTH + 1 =   25
 STRESS PERIOD=  1 TIMESTEP=557 LAYER=  1 ZONE=  2 ACTIVE CELLS= 1199 NUMBER OF EQUATIONS=    1199
 SOLVING FOR ZETA FOR LAYER     2 ZONE     2

     591 UPPER PART EQS.       588 LOWER PART EQS.    BAND WIDTH + 1 =   34
 STRESS PERIOD=  1 TIMESTEP=557 LAYER=  2 ZONE=  2 ACTIVE CELLS= 1179 NUMBER OF EQUATIONS=    1179

 SOLVING FOR HEAD 

 NO OUTPUT CONTROL FOR STRESS PERIOD    1   TIME STEP  558
 SOLVING FOR ZETA FOR LAYER     1 ZONE     2

     595 UPPER PART EQS.       595 LOWER PART EQS.    BAND WIDTH + 1 =   25
 STRESS PERIOD=  1 TIMESTEP=558 LAYER=  1 ZONE=  2 ACTIVE CELLS= 1190 NUMBER OF EQUATIONS=    1190
 SOLVING FOR ZETA FOR LAYER     2 ZONE     2

     593 UPPER PART EQS.       588 LOWER PART EQS.    BAND WIDTH + 1 =   34
 STRESS PERIOD=  1 TIMESTEP=558 LAYER=  2 ZONE=  2 ACTIVE CELLS= 1181 NUMBER OF EQUATIONS=    1181

 SOLVING FOR HEAD 

 NO OUTPUT CONTROL FOR STRESS PERIOD    1   TIME STEP  559
 SOLVING FOR ZETA FOR LAYER     1 ZONE     2

     610 UPPER PART EQS.       596 LOWER PART EQS.    BAND WIDTH + 1 =   31
 STRESS PERIOD=  1 TIMESTEP=559 LAYER=  1 ZONE=  2 ACTIVE CELLS= 1206 NUMBER OF EQUATIONS=    1206
 SOLVING FOR ZETA FOR LAYER     2 ZONE     2

     597 UPPER PART EQS.       586 LOWER PART EQS.    BAND WIDTH + 1 =   34
 STRESS PERIOD=  1 TIMESTEP=559 LAYER=  2 ZONE=  2 ACTIVE CELLS= 1183 NUMBER OF EQUATIONS=    1183

 SOLVING FOR HEAD 

 NO OUTPUT CONTROL FOR STRESS PERIOD    1   TIME STEP  560
 SOLVING FOR ZETA FOR LAYER     1 ZONE     2

     602 UPPER PART EQS.       585 LOWER PART EQS.    BAND WIDTH + 1 =   32
 STRESS PERIOD=  1 TIMESTEP=560 LAYER=  1 ZONE=  2 ACTIVE CELLS= 1187 NUMBER OF EQUATIONS=    1187
 SOLVING FOR ZETA FOR LAYER     2 ZONE     2

     597 UPPER PART EQS.       588 LOWER PART EQS.    BAND WIDTH + 1 =   34
 STRESS PERIOD=  1 TIMESTEP=560 LAYER=  2 ZONE=  2 ACTIVE CELLS= 1185 NUMBER OF EQUATIONS=    1185

 SOLVING FOR HEAD 

 NO OUTPUT CONTROL FOR STRESS PERIOD    1   TIME STEP  561
 SOLVING FOR ZETA FOR LAYER     1 ZONE     2

     609 UPPER PART EQS.       595 LOWER PART EQS.    BAND WIDTH + 1 =   33
 STRESS PERIOD=  1 TIMESTEP=561 LAYER=  1 ZONE=  2 ACTIVE CELLS= 1204 NUMBER OF EQUATIONS=    1204
 SOLVING FOR ZETA FOR LAYER     2 ZONE     2

     597 UPPER PART EQS.       588 LOWER PART EQS.    BAND WIDTH + 1 =   34
 STRESS PERIOD=  1 TIMESTEP=561 LAYER=  2 ZONE=  2 ACTIVE CELLS= 1185 NUMBER OF EQUATIONS=    1185

 SOLVING FOR HEAD 

 NO OUTPUT CONTROL FOR STRESS PERIOD    1   TIME STEP  562
 SOLVING FOR ZETA FOR LAYER     1 ZONE     2

     596 UPPER PART EQS.       592 LOWER PART EQS.    BAND WIDTH + 1 =   25
 STRESS PERIOD=  1 TIMESTEP=562 LAYER=  1 ZONE=  2 ACTIVE CELLS= 1188 NUMBER OF EQUATIONS=    1188
 SOLVING FOR ZETA FOR LAYER     2 ZONE     2

     593 UPPER PART EQS.       584 LOWER PART EQS.    BAND WIDTH + 1 =   34
 STRESS PERIOD=  1 TIMESTEP=562 LAYER=  2 ZONE=  2 ACTIVE CELLS= 1177 NUMBER OF EQUATIONS=    1177

 SOLVING FOR HEAD 

 NO OUTPUT CONTROL FOR STRESS PERIOD    1   TIME STEP  563
 SOLVING FOR ZETA FOR LAYER     1 ZONE     2

     604 UPPER PART EQS.       588 LOWER PART EQS.    BAND WIDTH + 1 =   31
 STRESS PERIOD=  1 TIMESTEP=563 LAYER=  1 ZONE=  2 ACTIVE CELLS= 1192 NUMBER OF EQUATIONS=    1192
 SOLVING FOR ZETA FOR LAYER     2 ZONE     2

     597 UPPER PART EQS.       588 LOWER PART EQS.    BAND WIDTH + 1 =   34
 STRESS PERIOD=  1 TIMESTEP=563 LAYER=  2 ZONE=  2 ACTIVE CELLS= 1185 NUMBER OF EQUATIONS=    1185

 SOLVING FOR HEAD 

 NO OUTPUT CONTROL FOR STRESS PERIOD    1   TIME STEP  564
 SOLVING FOR ZETA FOR LAYER     1 ZONE     2

     603 UPPER PART EQS.       594 LOWER PART EQS.    BAND WIDTH + 1 =   28
 STRESS PERIOD=  1 TIMESTEP=564 LAYER=  1 ZONE=  2 ACTIVE CELLS= 1197 NUMBER OF EQUATIONS=    1197
 SOLVING FOR ZETA FOR LAYER     2 ZONE     2

     595 UPPER PART EQS.       582 LOWER PART EQS.    BAND WIDTH + 1 =   34
 STRESS PERIOD=  1 TIMESTEP=564 LAYER=  2 ZONE=  2 ACTIVE CELLS= 1177 NUMBER OF EQUATIONS=    1177

 SOLVING FOR HEAD 

 NO OUTPUT CONTROL FOR STRESS PERIOD    1   TIME STEP  565
 SOLVING FOR ZETA FOR LAYER     1 ZONE     2

     610 UPPER PART EQS.       595 LOWER PART EQS.    BAND WIDTH + 1 =   32
 STRESS PERIOD=  1 TIMESTEP=565 LAYER=  1 ZONE=  2 ACTIVE CELLS= 1205 NUMBER OF EQUATIONS=    1205
 SOLVING FOR ZETA FOR LAYER     2 ZONE     2

     593 UPPER PART EQS.       586 LOWER PART EQS.    BAND WIDTH + 1 =   34
 STRESS PERIOD=  1 TIMESTEP=565 LAYER=  2 ZONE=  2 ACTIVE CELLS= 1179 NUMBER OF EQUATIONS=    1179

 SOLVING FOR HEAD 

 NO OUTPUT CONTROL FOR STRESS PERIOD    1   TIME STEP  566
 SOLVING FOR ZETA FOR LAYER     1 ZONE     2

     594 UPPER PART EQS.       596 LOWER PART EQS.    BAND WIDTH + 1 =   23
 STRESS PERIOD=  1 TIMESTEP=566 LAYER=  1 ZONE=  2 ACTIVE CELLS= 1190 NUMBER OF EQUATIONS=    1190
 SOLVING FOR ZETA FOR LAYER     2 ZONE     2

     593 UPPER PART EQS.       588 LOWER PART EQS.    BAND WIDTH + 1 =   34
 STRESS PERIOD=  1 TIMESTEP=566 LAYER=  2 ZONE=  2 ACTIVE CELLS= 1181 NUMBER OF EQUATIONS=    1181

 SOLVING FOR HEAD 

 NO OUTPUT CONTROL FOR STRESS PERIOD    1   TIME STEP  567
 SOLVING FOR ZETA FOR LAYER     1 ZONE     2

     609 UPPER PART EQS.       600 LOWER PART EQS.    BAND WIDTH + 1 =   31
 STRESS PERIOD=  1 TIMESTEP=567 LAYER=  1 ZONE=  2 ACTIVE CELLS= 1209 NUMBER OF EQUATIONS=    1209
 SOLVING FOR ZETA FOR LAYER     2 ZONE     2

     597 UPPER PART EQS.       590 LOWER PART EQS.    BAND WIDTH + 1 =   34
 STRESS PERIOD=  1 TIMESTEP=567 LAYER=  2 ZONE=  2 ACTIVE CELLS= 1187 NUMBER OF EQUATIONS=    1187

 SOLVING FOR HEAD 

 NO OUTPUT CONTROL FOR STRESS PERIOD    1   TIME STEP  568
 SOLVING FOR ZETA FOR LAYER     1 ZONE     2

     604 UPPER PART EQS.       589 LOWER PART EQS.    BAND WIDTH + 1 =   31
 STRESS PERIOD=  1 TIMESTEP=568 LAYER=  1 ZONE=  2 ACTIVE CELLS= 1193 NUMBER OF EQUATIONS=    1193
 SOLVING FOR ZETA FOR LAYER     2 ZONE     2

     597 UPPER PART EQS.       592 LOWER PART EQS.    BAND WIDTH + 1 =   34
 STRESS PERIOD=  1 TIMESTEP=568 LAYER=  2 ZONE=  2 ACTIVE CELLS= 1189 NUMBER OF EQUATIONS=    1189

 SOLVING FOR HEAD 

 NO OUTPUT CONTROL FOR STRESS PERIOD    1   TIME STEP  569
 SOLVING FOR ZETA FOR LAYER     1 ZONE     2

     604 UPPER PART EQS.       594 LOWER PART EQS.    BAND WIDTH + 1 =   28
 STRESS PERIOD=  1 TIMESTEP=569 LAYER=  1 ZONE=  2 ACTIVE CELLS= 1198 NUMBER OF EQUATIONS=    1198
 SOLVING FOR ZETA FOR LAYER     2 ZONE     2

     597 UPPER PART EQS.       592 LOWER PART EQS.    BAND WIDTH + 1 =   34
 STRESS PERIOD=  1 TIMESTEP=569 LAYER=  2 ZONE=  2 ACTIVE CELLS= 1189 NUMBER OF EQUATIONS=    1189

 SOLVING FOR HEAD 

 NO OUTPUT CONTROL FOR STRESS PERIOD    1   TIME STEP  570
 SOLVING FOR ZETA FOR LAYER     1 ZONE     2

     595 UPPER PART EQS.       588 LOWER PART EQS.    BAND WIDTH + 1 =   28
 STRESS PERIOD=  1 TIMESTEP=570 LAYER=  1 ZONE=  2 ACTIVE CELLS= 1183 NUMBER OF EQUATIONS=    1183
 SOLVING FOR ZETA FOR LAYER     2 ZONE     2

     597 UPPER PART EQS.       596 LOWER PART EQS.    BAND WIDTH + 1 =   34
 STRESS PERIOD=  1 TIMESTEP=570 LAYER=  2 ZONE=  2 ACTIVE CELLS= 1193 NUMBER OF EQUATIONS=    1193

 SOLVING FOR HEAD 

 NO OUTPUT CONTROL FOR STRESS PERIOD    1   TIME STEP  571
 SOLVING FOR ZETA FOR LAYER     1 ZONE     2

     610 UPPER PART EQS.       592 LOWER PART EQS.    BAND WIDTH + 1 =   35
 STRESS PERIOD=  1 TIMESTEP=571 LAYER=  1 ZONE=  2 ACTIVE CELLS= 1202 NUMBER OF EQUATIONS=    1202
 SOLVING FOR ZETA FOR LAYER     2 ZONE     2

     597 UPPER PART EQS.       588 LOWER PART EQS.    BAND WIDTH + 1 =   34
 STRESS PERIOD=  1 TIMESTEP=571 LAYER=  2 ZONE=  2 ACTIVE CELLS= 1185 NUMBER OF EQUATIONS=    1185

 SOLVING FOR HEAD 

 NO OUTPUT CONTROL FOR STRESS PERIOD    1   TIME STEP  572
 SOLVING FOR ZETA FOR LAYER     1 ZONE     2

     602 UPPER PART EQS.       596 LOWER PART EQS.    BAND WIDTH + 1 =   24
 STRESS PERIOD=  1 TIMESTEP=572 LAYER=  1 ZONE=  2 ACTIVE CELLS= 1198 NUMBER OF EQUATIONS=    1198
 SOLVING FOR ZETA FOR LAYER     2 ZONE     2

     593 UPPER PART EQS.       596 LOWER PART EQS.    BAND WIDTH + 1 =   34
 STRESS PERIOD=  1 TIMESTEP=572 LAYER=  2 ZONE=  2 ACTIVE CELLS= 1189 NUMBER OF EQUATIONS=    1189

 SOLVING FOR HEAD 

 NO OUTPUT CONTROL FOR STRESS PERIOD    1   TIME STEP  573
 SOLVING FOR ZETA FOR LAYER     1 ZONE     2

     605 UPPER PART EQS.       595 LOWER PART EQS.    BAND WIDTH + 1 =   30
 STRESS PERIOD=  1 TIMESTEP=573 LAYER=  1 ZONE=  2 ACTIVE CELLS= 1200 NUMBER OF EQUATIONS=    1200
 SOLVING FOR ZETA FOR LAYER     2 ZONE     2

     595 UPPER PART EQS.       594 LOWER PART EQS.    BAND WIDTH + 1 =   34
 STRESS PERIOD=  1 TIMESTEP=573 LAYER=  2 ZONE=  2 ACTIVE CELLS= 1189 NUMBER OF EQUATIONS=    1189

 SOLVING FOR HEAD 

 NO OUTPUT CONTROL FOR STRESS PERIOD    1   TIME STEP  574
 SOLVING FOR ZETA FOR LAYER     1 ZONE     2

     595 UPPER PART EQS.       593 LOWER PART EQS.    BAND WIDTH + 1 =   24
 STRESS PERIOD=  1 TIMESTEP=574 LAYER=  1 ZONE=  2 ACTIVE CELLS= 1188 NUMBER OF EQUATIONS=    1188
 SOLVING FOR ZETA FOR LAYER     2 ZONE     2

     593 UPPER PART EQS.       592 LOWER PART EQS.    BAND WIDTH + 1 =   34
 STRESS PERIOD=  1 TIMESTEP=574 LAYER=  2 ZONE=  2 ACTIVE CELLS= 1185 NUMBER OF EQUATIONS=    1185

 SOLVING FOR HEAD 

 NO OUTPUT CONTROL FOR STRESS PERIOD    1   TIME STEP  575
 SOLVING FOR ZETA FOR LAYER     1 ZONE     2

     601 UPPER PART EQS.       593 LOWER PART EQS.    BAND WIDTH + 1 =   28
 STRESS PERIOD=  1 TIMESTEP=575 LAYER=  1 ZONE=  2 ACTIVE CELLS= 1194 NUMBER OF EQUATIONS=    1194
 SOLVING FOR ZETA FOR LAYER     2 ZONE     2

     593 UPPER PART EQS.       592 LOWER PART EQS.    BAND WIDTH + 1 =   34
 STRESS PERIOD=  1 TIMESTEP=575 LAYER=  2 ZONE=  2 ACTIVE CELLS= 1185 NUMBER OF EQUATIONS=    1185

 SOLVING FOR HEAD 

 NO OUTPUT CONTROL FOR STRESS PERIOD    1   TIME STEP  576
 SOLVING FOR ZETA FOR LAYER     1 ZONE     2

     599 UPPER PART EQS.       592 LOWER PART EQS.    BAND WIDTH + 1 =   26
 STRESS PERIOD=  1 TIMESTEP=576 LAYER=  1 ZONE=  2 ACTIVE CELLS= 1191 NUMBER OF EQUATIONS=    1191
 SOLVING FOR ZETA FOR LAYER     2 ZONE     2

     597 UPPER PART EQS.       590 LOWER PART EQS.    BAND WIDTH + 1 =   34
 STRESS PERIOD=  1 TIMESTEP=576 LAYER=  2 ZONE=  2 ACTIVE CELLS= 1187 NUMBER OF EQUATIONS=    1187

 SOLVING FOR HEAD 

 NO OUTPUT CONTROL FOR STRESS PERIOD    1   TIME STEP  577
 SOLVING FOR ZETA FOR LAYER     1 ZONE     2

     606 UPPER PART EQS.       590 LOWER PART EQS.    BAND WIDTH + 1 =   33
 STRESS PERIOD=  1 TIMESTEP=577 LAYER=  1 ZONE=  2 ACTIVE CELLS= 1196 NUMBER OF EQUATIONS=    1196
 SOLVING FOR ZETA FOR LAYER     2 ZONE     2

     597 UPPER PART EQS.       592 LOWER PART EQS.    BAND WIDTH + 1 =   34
 STRESS PERIOD=  1 TIMESTEP=577 LAYER=  2 ZONE=  2 ACTIVE CELLS= 1189 NUMBER OF EQUATIONS=    1189

 SOLVING FOR HEAD 

 NO OUTPUT CONTROL FOR STRESS PERIOD    1   TIME STEP  578
 SOLVING FOR ZETA FOR LAYER     1 ZONE     2

     597 UPPER PART EQS.       589 LOWER PART EQS.    BAND WIDTH + 1 =   24
 STRESS PERIOD=  1 TIMESTEP=578 LAYER=  1 ZONE=  2 ACTIVE CELLS= 1186 NUMBER OF EQUATIONS=    1186
 SOLVING FOR ZETA FOR LAYER     2 ZONE     2

     597 UPPER PART EQS.       596 LOWER PART EQS.    BAND WIDTH + 1 =   34
 STRESS PERIOD=  1 TIMESTEP=578 LAYER=  2 ZONE=  2 ACTIVE CELLS= 1193 NUMBER OF EQUATIONS=    1193

 SOLVING FOR HEAD 

 NO OUTPUT CONTROL FOR STRESS PERIOD    1   TIME STEP  579
 SOLVING FOR ZETA FOR LAYER     1 ZONE     2

     602 UPPER PART EQS.       598 LOWER PART EQS.    BAND WIDTH + 1 =   26
 STRESS PERIOD=  1 TIMESTEP=579 LAYER=  1 ZONE=  2 ACTIVE CELLS= 1200 NUMBER OF EQUATIONS=    1200
 SOLVING FOR ZETA FOR LAYER     2 ZONE     2

     597 UPPER PART EQS.       596 LOWER PART EQS.    BAND WIDTH + 1 =   34
 STRESS PERIOD=  1 TIMESTEP=579 LAYER=  2 ZONE=  2 ACTIVE CELLS= 1193 NUMBER OF EQUATIONS=    1193

 SOLVING FOR HEAD 

 NO OUTPUT CONTROL FOR STRESS PERIOD    1   TIME STEP  580
 SOLVING FOR ZETA FOR LAYER     1 ZONE     2

     594 UPPER PART EQS.       593 LOWER PART EQS.    BAND WIDTH + 1 =   25
 STRESS PERIOD=  1 TIMESTEP=580 LAYER=  1 ZONE=  2 ACTIVE CELLS= 1187 NUMBER OF EQUATIONS=    1187
 SOLVING FOR ZETA FOR LAYER     2 ZONE     2

     597 UPPER PART EQS.       596 LOWER PART EQS.    BAND WIDTH + 1 =   34
 STRESS PERIOD=  1 TIMESTEP=580 LAYER=  2 ZONE=  2 ACTIVE CELLS= 1193 NUMBER OF EQUATIONS=    1193

 SOLVING FOR HEAD 

 NO OUTPUT CONTROL FOR STRESS PERIOD    1   TIME STEP  581
 SOLVING FOR ZETA FOR LAYER     1 ZONE     2

     602 UPPER PART EQS.       594 LOWER PART EQS.    BAND WIDTH + 1 =   27
 STRESS PERIOD=  1 TIMESTEP=581 LAYER=  1 ZONE=  2 ACTIVE CELLS= 1196 NUMBER OF EQUATIONS=    1196
 SOLVING FOR ZETA FOR LAYER     2 ZONE     2

     595 UPPER PART EQS.       596 LOWER PART EQS.    BAND WIDTH + 1 =   34
 STRESS PERIOD=  1 TIMESTEP=581 LAYER=  2 ZONE=  2 ACTIVE CELLS= 1191 NUMBER OF EQUATIONS=    1191

 SOLVING FOR HEAD 

 NO OUTPUT CONTROL FOR STRESS PERIOD    1   TIME STEP  582
 SOLVING FOR ZETA FOR LAYER     1 ZONE     2

     594 UPPER PART EQS.       598 LOWER PART EQS.    BAND WIDTH + 1 =   28
 STRESS PERIOD=  1 TIMESTEP=582 LAYER=  1 ZONE=  2 ACTIVE CELLS= 1192 NUMBER OF EQUATIONS=    1192
 SOLVING FOR ZETA FOR LAYER     2 ZONE     2

     595 UPPER PART EQS.       590 LOWER PART EQS.    BAND WIDTH + 1 =   34
 STRESS PERIOD=  1 TIMESTEP=582 LAYER=  2 ZONE=  2 ACTIVE CELLS= 1185 NUMBER OF EQUATIONS=    1185

 SOLVING FOR HEAD 

 NO OUTPUT CONTROL FOR STRESS PERIOD    1   TIME STEP  583
 SOLVING FOR ZETA FOR LAYER     1 ZONE     2

     594 UPPER PART EQS.       591 LOWER PART EQS.    BAND WIDTH + 1 =   24
 STRESS PERIOD=  1 TIMESTEP=583 LAYER=  1 ZONE=  2 ACTIVE CELLS= 1185 NUMBER OF EQUATIONS=    1185
 SOLVING FOR ZETA FOR LAYER     2 ZONE     2

     593 UPPER PART EQS.       594 LOWER PART EQS.    BAND WIDTH + 1 =   34
 STRESS PERIOD=  1 TIMESTEP=583 LAYER=  2 ZONE=  2 ACTIVE CELLS= 1187 NUMBER OF EQUATIONS=    1187

 SOLVING FOR HEAD 

 NO OUTPUT CONTROL FOR STRESS PERIOD    1   TIME STEP  584
 SOLVING FOR ZETA FOR LAYER     1 ZONE     2

     598 UPPER PART EQS.       595 LOWER PART EQS.    BAND WIDTH + 1 =   24
 STRESS PERIOD=  1 TIMESTEP=584 LAYER=  1 ZONE=  2 ACTIVE CELLS= 1193 NUMBER OF EQUATIONS=    1193
 SOLVING FOR ZETA FOR LAYER     2 ZONE     2

     597 UPPER PART EQS.       592 LOWER PART EQS.    BAND WIDTH + 1 =   34
 STRESS PERIOD=  1 TIMESTEP=584 LAYER=  2 ZONE=  2 ACTIVE CELLS= 1189 NUMBER OF EQUATIONS=    1189

 SOLVING FOR HEAD 

 NO OUTPUT CONTROL FOR STRESS PERIOD    1   TIME STEP  585
 SOLVING FOR ZETA FOR LAYER     1 ZONE     2

     599 UPPER PART EQS.       583 LOWER PART EQS.    BAND WIDTH + 1 =   35
 STRESS PERIOD=  1 TIMESTEP=585 LAYER=  1 ZONE=  2 ACTIVE CELLS= 1182 NUMBER OF EQUATIONS=    1182
 SOLVING FOR ZETA FOR LAYER     2 ZONE     2

     597 UPPER PART EQS.       596 LOWER PART EQS.    BAND WIDTH + 1 =   34
 STRESS PERIOD=  1 TIMESTEP=585 LAYER=  2 ZONE=  2 ACTIVE CELLS= 1193 NUMBER OF EQUATIONS=    1193

 SOLVING FOR HEAD 

 NO OUTPUT CONTROL FOR STRESS PERIOD    1   TIME STEP  586
 SOLVING FOR ZETA FOR LAYER     1 ZONE     2

     602 UPPER PART EQS.       598 LOWER PART EQS.    BAND WIDTH + 1 =   26
 STRESS PERIOD=  1 TIMESTEP=586 LAYER=  1 ZONE=  2 ACTIVE CELLS= 1200 NUMBER OF EQUATIONS=    1200
 SOLVING FOR ZETA FOR LAYER     2 ZONE     2

     597 UPPER PART EQS.       596 LOWER PART EQS.    BAND WIDTH + 1 =   34
 STRESS PERIOD=  1 TIMESTEP=586 LAYER=  2 ZONE=  2 ACTIVE CELLS= 1193 NUMBER OF EQUATIONS=    1193

 SOLVING FOR HEAD 

 NO OUTPUT CONTROL FOR STRESS PERIOD    1   TIME STEP  587
 SOLVING FOR ZETA FOR LAYER     1 ZONE     2

     593 UPPER PART EQS.       596 LOWER PART EQS.    BAND WIDTH + 1 =   26
 STRESS PERIOD=  1 TIMESTEP=587 LAYER=  1 ZONE=  2 ACTIVE CELLS= 1189 NUMBER OF EQUATIONS=    1189
 SOLVING FOR ZETA FOR LAYER     2 ZONE     2

     597 UPPER PART EQS.       596 LOWER PART EQS.    BAND WIDTH + 1 =   34
 STRESS PERIOD=  1 TIMESTEP=587 LAYER=  2 ZONE=  2 ACTIVE CELLS= 1193 NUMBER OF EQUATIONS=    1193

 SOLVING FOR HEAD 

 NO OUTPUT CONTROL FOR STRESS PERIOD    1   TIME STEP  588
 SOLVING FOR ZETA FOR LAYER     1 ZONE     2

     595 UPPER PART EQS.       593 LOWER PART EQS.    BAND WIDTH + 1 =   25
 STRESS PERIOD=  1 TIMESTEP=588 LAYER=  1 ZONE=  2 ACTIVE CELLS= 1188 NUMBER OF EQUATIONS=    1188
 SOLVING FOR ZETA FOR LAYER     2 ZONE     2

     597 UPPER PART EQS.       596 LOWER PART EQS.    BAND WIDTH + 1 =   34
 STRESS PERIOD=  1 TIMESTEP=588 LAYER=  2 ZONE=  2 ACTIVE CELLS= 1193 NUMBER OF EQUATIONS=    1193

 SOLVING FOR HEAD 

 NO OUTPUT CONTROL FOR STRESS PERIOD    1   TIME STEP  589
 SOLVING FOR ZETA FOR LAYER     1 ZONE     2

     598 UPPER PART EQS.       594 LOWER PART EQS.    BAND WIDTH + 1 =   25
 STRESS PERIOD=  1 TIMESTEP=589 LAYER=  1 ZONE=  2 ACTIVE CELLS= 1192 NUMBER OF EQUATIONS=    1192
 SOLVING FOR ZETA FOR LAYER     2 ZONE     2

     597 UPPER PART EQS.       594 LOWER PART EQS.    BAND WIDTH + 1 =   34
 STRESS PERIOD=  1 TIMESTEP=589 LAYER=  2 ZONE=  2 ACTIVE CELLS= 1191 NUMBER OF EQUATIONS=    1191

 SOLVING FOR HEAD 

 NO OUTPUT CONTROL FOR STRESS PERIOD    1   TIME STEP  590
 SOLVING FOR ZETA FOR LAYER     1 ZONE     2

     596 UPPER PART EQS.       595 LOWER PART EQS.    BAND WIDTH + 1 =   23
 STRESS PERIOD=  1 TIMESTEP=590 LAYER=  1 ZONE=  2 ACTIVE CELLS= 1191 NUMBER OF EQUATIONS=    1191
 SOLVING FOR ZETA FOR LAYER     2 ZONE     2

     597 UPPER PART EQS.       594 LOWER PART EQS.    BAND WIDTH + 1 =   34
 STRESS PERIOD=  1 TIMESTEP=590 LAYER=  2 ZONE=  2 ACTIVE CELLS= 1191 NUMBER OF EQUATIONS=    1191

 SOLVING FOR HEAD 

 NO OUTPUT CONTROL FOR STRESS PERIOD    1   TIME STEP  591
 SOLVING FOR ZETA FOR LAYER     1 ZONE     2

     596 UPPER PART EQS.       588 LOWER PART EQS.    BAND WIDTH + 1 =   27
 STRESS PERIOD=  1 TIMESTEP=591 LAYER=  1 ZONE=  2 ACTIVE CELLS= 1184 NUMBER OF EQUATIONS=    1184
 SOLVING FOR ZETA FOR LAYER     2 ZONE     2

     595 UPPER PART EQS.       594 LOWER PART EQS.    BAND WIDTH + 1 =   34
 STRESS PERIOD=  1 TIMESTEP=591 LAYER=  2 ZONE=  2 ACTIVE CELLS= 1189 NUMBER OF EQUATIONS=    1189

 SOLVING FOR HEAD 

 NO OUTPUT CONTROL FOR STRESS PERIOD    1   TIME STEP  592
 SOLVING FOR ZETA FOR LAYER     1 ZONE     2

     598 UPPER PART EQS.       596 LOWER PART EQS.    BAND WIDTH + 1 =   28
 STRESS PERIOD=  1 TIMESTEP=592 LAYER=  1 ZONE=  2 ACTIVE CELLS= 1194 NUMBER OF EQUATIONS=    1194
 SOLVING FOR ZETA FOR LAYER     2 ZONE     2

     593 UPPER PART EQS.       590 LOWER PART EQS.    BAND WIDTH + 1 =   34
 STRESS PERIOD=  1 TIMESTEP=592 LAYER=  2 ZONE=  2 ACTIVE CELLS= 1183 NUMBER OF EQUATIONS=    1183

 SOLVING FOR HEAD 

 NO OUTPUT CONTROL FOR STRESS PERIOD    1   TIME STEP  593
 SOLVING FOR ZETA FOR LAYER     1 ZONE     2

     597 UPPER PART EQS.       591 LOWER PART EQS.    BAND WIDTH + 1 =   25
 STRESS PERIOD=  1 TIMESTEP=593 LAYER=  1 ZONE=  2 ACTIVE CELLS= 1188 NUMBER OF EQUATIONS=    1188
 SOLVING FOR ZETA FOR LAYER     2 ZONE     2

     595 UPPER PART EQS.       596 LOWER PART EQS.    BAND WIDTH + 1 =   34
 STRESS PERIOD=  1 TIMESTEP=593 LAYER=  2 ZONE=  2 ACTIVE CELLS= 1191 NUMBER OF EQUATIONS=    1191

 SOLVING FOR HEAD 

 NO OUTPUT CONTROL FOR STRESS PERIOD    1   TIME STEP  594
 SOLVING FOR ZETA FOR LAYER     1 ZONE     2

     600 UPPER PART EQS.       596 LOWER PART EQS.    BAND WIDTH + 1 =   26
 STRESS PERIOD=  1 TIMESTEP=594 LAYER=  1 ZONE=  2 ACTIVE CELLS= 1196 NUMBER OF EQUATIONS=    1196
 SOLVING FOR ZETA FOR LAYER     2 ZONE     2

     597 UPPER PART EQS.       596 LOWER PART EQS.    BAND WIDTH + 1 =   34
 STRESS PERIOD=  1 TIMESTEP=594 LAYER=  2 ZONE=  2 ACTIVE CELLS= 1193 NUMBER OF EQUATIONS=    1193

 SOLVING FOR HEAD 

 NO OUTPUT CONTROL FOR STRESS PERIOD    1   TIME STEP  595
 SOLVING FOR ZETA FOR LAYER     1 ZONE     2

     592 UPPER PART EQS.       595 LOWER PART EQS.    BAND WIDTH + 1 =   25
 STRESS PERIOD=  1 TIMESTEP=595 LAYER=  1 ZONE=  2 ACTIVE CELLS= 1187 NUMBER OF EQUATIONS=    1187
 SOLVING FOR ZETA FOR LAYER     2 ZONE     2

     597 UPPER PART EQS.       596 LOWER PART EQS.    BAND WIDTH + 1 =   34
 STRESS PERIOD=  1 TIMESTEP=595 LAYER=  2 ZONE=  2 ACTIVE CELLS= 1193 NUMBER OF EQUATIONS=    1193

 SOLVING FOR HEAD 

 NO OUTPUT CONTROL FOR STRESS PERIOD    1   TIME STEP  596
 SOLVING FOR ZETA FOR LAYER     1 ZONE     2

     600 UPPER PART EQS.       595 LOWER PART EQS.    BAND WIDTH + 1 =   25
 STRESS PERIOD=  1 TIMESTEP=596 LAYER=  1 ZONE=  2 ACTIVE CELLS= 1195 NUMBER OF EQUATIONS=    1195
 SOLVING FOR ZETA FOR LAYER     2 ZONE     2

     597 UPPER PART EQS.       592 LOWER PART EQS.    BAND WIDTH + 1 =   34
 STRESS PERIOD=  1 TIMESTEP=596 LAYER=  2 ZONE=  2 ACTIVE CELLS= 1189 NUMBER OF EQUATIONS=    1189

 SOLVING FOR HEAD 

 NO OUTPUT CONTROL FOR STRESS PERIOD    1   TIME STEP  597
 SOLVING FOR ZETA FOR LAYER     1 ZONE     2

     598 UPPER PART EQS.       590 LOWER PART EQS.    BAND WIDTH + 1 =   29
 STRESS PERIOD=  1 TIMESTEP=597 LAYER=  1 ZONE=  2 ACTIVE CELLS= 1188 NUMBER OF EQUATIONS=    1188
 SOLVING FOR ZETA FOR LAYER     2 ZONE     2

     597 UPPER PART EQS.       596 LOWER PART EQS.    BAND WIDTH + 1 =   34
 STRESS PERIOD=  1 TIMESTEP=597 LAYER=  2 ZONE=  2 ACTIVE CELLS= 1193 NUMBER OF EQUATIONS=    1193

 SOLVING FOR HEAD 

 NO OUTPUT CONTROL FOR STRESS PERIOD    1   TIME STEP  598
 SOLVING FOR ZETA FOR LAYER     1 ZONE     2

     600 UPPER PART EQS.       590 LOWER PART EQS.    BAND WIDTH + 1 =   28
 STRESS PERIOD=  1 TIMESTEP=598 LAYER=  1 ZONE=  2 ACTIVE CELLS= 1190 NUMBER OF EQUATIONS=    1190
 SOLVING FOR ZETA FOR LAYER     2 ZONE     2

     597 UPPER PART EQS.       596 LOWER PART EQS.    BAND WIDTH + 1 =   34
 STRESS PERIOD=  1 TIMESTEP=598 LAYER=  2 ZONE=  2 ACTIVE CELLS= 1193 NUMBER OF EQUATIONS=    1193

 SOLVING FOR HEAD 

 NO OUTPUT CONTROL FOR STRESS PERIOD    1   TIME STEP  599
 SOLVING FOR ZETA FOR LAYER     1 ZONE     2

     598 UPPER PART EQS.       585 LOWER PART EQS.    BAND WIDTH + 1 =   29
 STRESS PERIOD=  1 TIMESTEP=599 LAYER=  1 ZONE=  2 ACTIVE CELLS= 1183 NUMBER OF EQUATIONS=    1183
 SOLVING FOR ZETA FOR LAYER     2 ZONE     2

     597 UPPER PART EQS.       594 LOWER PART EQS.    BAND WIDTH + 1 =   34
 STRESS PERIOD=  1 TIMESTEP=599 LAYER=  2 ZONE=  2 ACTIVE CELLS= 1191 NUMBER OF EQUATIONS=    1191

 SOLVING FOR HEAD 

 OUTPUT CONTROL FOR STRESS PERIOD    1   TIME STEP  600
    PRINT BUDGET
    SAVE HEAD FOR ALL LAYERS
 SOLVING FOR ZETA FOR LAYER     1 ZONE     2

     591 UPPER PART EQS.       598 LOWER PART EQS.    BAND WIDTH + 1 =   29
 STRESS PERIOD=  1 TIMESTEP=600 LAYER=  1 ZONE=  2 ACTIVE CELLS= 1189 NUMBER OF EQUATIONS=    1189
 SOLVING FOR ZETA FOR LAYER     2 ZONE     2

     597 UPPER PART EQS.       590 LOWER PART EQS.    BAND WIDTH + 1 =   34
 STRESS PERIOD=  1 TIMESTEP=600 LAYER=  2 ZONE=  2 ACTIVE CELLS= 1187 NUMBER OF EQUATIONS=    1187
 UBUDSV SAVING "      ZETASRF  1" ON UNIT 55 AT TIME STEP600, STRESS PERIOD    1


                      VOLUMETRIC SWI ZONE BUDGET FOR ENTIRE MODEL
                     AT END OF TIME STEP  600 IN STRESS PERIOD   1
                                      ZONE     1
  -----------------------------------------------------------------------------------

        CUMULATIVE VOLUMES      L**3       RATES FOR THIS TIME STEP      L**3/T
        ------------------                 ------------------------

              IN:                                      IN:
              ---                                      ---
             BOUNDARIES =    73678224.0000            BOUNDARIES =        1681.0000
          CONSTANT HEAD =           0.0000         CONSTANT HEAD =           0.0000
            ZONE CHANGE =      327519.0938           ZONE CHANGE =           2.9847
       ZONE CHG TIP/TOE =      287986.5938      ZONE CHG TIP/TOE =           3.9545
            ZONE MIXING =           0.0000           ZONE MIXING =           0.0000

               TOTAL IN =    74293728.0000              TOTAL IN =        1687.9392

             OUT:                                     OUT:
             ----                                     ----
             BOUNDARIES =    56641948.0000            BOUNDARIES =        1633.0524
          CONSTANT HEAD =           0.0000         CONSTANT HEAD =           0.0000
            ZONE CHANGE =    18091656.0000           ZONE CHANGE =          50.9184
       ZONE CHG TIP/TOE =      296648.5000      ZONE CHG TIP/TOE =           3.9445
            ZONE MIXING =           0.0000           ZONE MIXING =           0.0000

              TOTAL OUT =    75030248.0000             TOTAL OUT =        1687.9152

               IN - OUT =     -736520.0000              IN - OUT =       2.4048E-02

    PERCENT DISCREPANCY =          -0.99     PERCENT DISCREPANCY =           0.00



                      VOLUMETRIC SWI ZONE BUDGET FOR ENTIRE MODEL
                     AT END OF TIME STEP  600 IN STRESS PERIOD   1
                                      ZONE     2
  -----------------------------------------------------------------------------------

        CUMULATIVE VOLUMES      L**3       RATES FOR THIS TIME STEP      L**3/T
        ------------------                 ------------------------

              IN:                                      IN:
              ---                                      ---
             BOUNDARIES =           0.0000            BOUNDARIES =           0.0000
          CONSTANT HEAD =           0.0000         CONSTANT HEAD =           0.0000
            ZONE CHANGE =    18067566.0000           ZONE CHANGE =          50.4720
       ZONE CHG TIP/TOE =     1035752.8750      ZONE CHG TIP/TOE =           3.9445
            ZONE MIXING =           0.0000           ZONE MIXING =           0.0000

               TOTAL IN =    19103318.0000              TOTAL IN =          54.4165

             OUT:                                     OUT:
             ----                                     ----
             BOUNDARIES =    17036292.0000            BOUNDARIES =          47.9477
          CONSTANT HEAD =           0.0000         CONSTANT HEAD =           0.0000
            ZONE CHANGE =     1066623.5000           ZONE CHANGE =           2.9847
       ZONE CHG TIP/TOE =      263901.7812      ZONE CHG TIP/TOE =           3.5081
            ZONE MIXING =           0.0000           ZONE MIXING =           0.0000

              TOTAL OUT =    18366818.0000             TOTAL OUT =          54.4405

               IN - OUT =      736500.0000              IN - OUT =      -2.4036E-02

    PERCENT DISCREPANCY =           3.93     PERCENT DISCREPANCY =          -0.04


 HEAD WILL BE SAVED ON UNIT   51 AT END OF TIME STEP  600, STRESS PERIOD    1
1
  VOLUMETRIC BUDGET FOR ENTIRE MODEL AT END OF TIME STEP  600, STRESS PERIOD   1
  ------------------------------------------------------------------------------

     CUMULATIVE VOLUMES      L**3       RATES FOR THIS TIME STEP      L**3/T
     ------------------                 ------------------------

           IN:                                      IN:
           ---                                      ---
             STORAGE =           0.0000               STORAGE =           0.0000
       CONSTANT HEAD =           0.0000         CONSTANT HEAD =           0.0000
               WELLS =           0.0000                 WELLS =           0.0000
     HEAD DEP BOUNDS =           0.0000       HEAD DEP BOUNDS =           0.0000
            RECHARGE =    73678224.0000              RECHARGE =        1681.0000
          SWIADDTOCH =           0.0000            SWIADDTOCH =           0.0000

            TOTAL IN =    73678224.0000              TOTAL IN =        1681.0000

          OUT:                                     OUT:
          ----                                     ----
             STORAGE =           0.0000               STORAGE =           0.0000
       CONSTANT HEAD =           0.0000         CONSTANT HEAD =           0.0000
               WELLS =           0.0000                 WELLS =           0.0000
     HEAD DEP BOUNDS =    73678224.0000       HEAD DEP BOUNDS =        1681.0000
            RECHARGE =           0.0000              RECHARGE =           0.0000
          SWIADDTOCH =           0.0000            SWIADDTOCH =           0.0000

           TOTAL OUT =    73678224.0000             TOTAL OUT =        1681.0000

            IN - OUT =           0.0000              IN - OUT =           0.0000

 PERCENT DISCREPANCY =           0.00     PERCENT DISCREPANCY =           0.00






         TIME SUMMARY AT END OF TIME STEP  600 IN STRESS PERIOD    1
                    SECONDS     MINUTES      HOURS       DAYS        YEARS
                    -----------------------------------------------------------
   TIME STEP LENGTH 6.31152E+06 1.05192E+05  1753.2      73.050     0.20000    
 STRESS PERIOD TIME 3.78693E+09 6.31156E+07 1.05193E+06  43830.      120.00    
         TOTAL TIME 3.78693E+09 6.31156E+07 1.05193E+06  43830.      120.00    
1

 SOLVING FOR HEAD 

 NO OUTPUT CONTROL FOR STRESS PERIOD    1   TIME STEP  601
 SOLVING FOR ZETA FOR LAYER     1 ZONE     2

     604 UPPER PART EQS.       592 LOWER PART EQS.    BAND WIDTH + 1 =   31
 STRESS PERIOD=  1 TIMESTEP=601 LAYER=  1 ZONE=  2 ACTIVE CELLS= 1196 NUMBER OF EQUATIONS=    1196
 SOLVING FOR ZETA FOR LAYER     2 ZONE     2

     597 UPPER PART EQS.       596 LOWER PART EQS.    BAND WIDTH + 1 =   34
 STRESS PERIOD=  1 TIMESTEP=601 LAYER=  2 ZONE=  2 ACTIVE CELLS= 1193 NUMBER OF EQUATIONS=    1193

 SOLVING FOR HEAD 

 NO OUTPUT CONTROL FOR STRESS PERIOD    1   TIME STEP  602
 SOLVING FOR ZETA FOR LAYER     1 ZONE     2

     604 UPPER PART EQS.       597 LOWER PART EQS.    BAND WIDTH + 1 =   25
 STRESS PERIOD=  1 TIMESTEP=602 LAYER=  1 ZONE=  2 ACTIVE CELLS= 1201 NUMBER OF EQUATIONS=    1201
 SOLVING FOR ZETA FOR LAYER     2 ZONE     2

     595 UPPER PART EQS.       596 LOWER PART EQS.    BAND WIDTH + 1 =   34
 STRESS PERIOD=  1 TIMESTEP=602 LAYER=  2 ZONE=  2 ACTIVE CELLS= 1191 NUMBER OF EQUATIONS=    1191

 SOLVING FOR HEAD 

 NO OUTPUT CONTROL FOR STRESS PERIOD    1   TIME STEP  603
 SOLVING FOR ZETA FOR LAYER     1 ZONE     2

     593 UPPER PART EQS.       588 LOWER PART EQS.    BAND WIDTH + 1 =   26
 STRESS PERIOD=  1 TIMESTEP=603 LAYER=  1 ZONE=  2 ACTIVE CELLS= 1181 NUMBER OF EQUATIONS=    1181
 SOLVING FOR ZETA FOR LAYER     2 ZONE     2

     593 UPPER PART EQS.       600 LOWER PART EQS.    BAND WIDTH + 1 =   32
 STRESS PERIOD=  1 TIMESTEP=603 LAYER=  2 ZONE=  2 ACTIVE CELLS= 1193 NUMBER OF EQUATIONS=    1193

 SOLVING FOR HEAD 

 NO OUTPUT CONTROL FOR STRESS PERIOD    1   TIME STEP  604
 SOLVING FOR ZETA FOR LAYER     1 ZONE     2

     595 UPPER PART EQS.       592 LOWER PART EQS.    BAND WIDTH + 1 =   25
 STRESS PERIOD=  1 TIMESTEP=604 LAYER=  1 ZONE=  2 ACTIVE CELLS= 1187 NUMBER OF EQUATIONS=    1187
 SOLVING FOR ZETA FOR LAYER     2 ZONE     2

     597 UPPER PART EQS.       600 LOWER PART EQS.    BAND WIDTH + 1 =   32
 STRESS PERIOD=  1 TIMESTEP=604 LAYER=  2 ZONE=  2 ACTIVE CELLS= 1197 NUMBER OF EQUATIONS=    1197

 SOLVING FOR HEAD 

 NO OUTPUT CONTROL FOR STRESS PERIOD    1   TIME STEP  605
 SOLVING FOR ZETA FOR LAYER     1 ZONE     2

     601 UPPER PART EQS.       592 LOWER PART EQS.    BAND WIDTH + 1 =   27
 STRESS PERIOD=  1 TIMESTEP=605 LAYER=  1 ZONE=  2 ACTIVE CELLS= 1193 NUMBER OF EQUATIONS=    1193
 SOLVING FOR ZETA FOR LAYER     2 ZONE     2

     597 UPPER PART EQS.       600 LOWER PART EQS.    BAND WIDTH + 1 =   32
 STRESS PERIOD=  1 TIMESTEP=605 LAYER=  2 ZONE=  2 ACTIVE CELLS= 1197 NUMBER OF EQUATIONS=    1197

 SOLVING FOR HEAD 

 NO OUTPUT CONTROL FOR STRESS PERIOD    1   TIME STEP  606
 SOLVING FOR ZETA FOR LAYER     1 ZONE     2

     594 UPPER PART EQS.       595 LOWER PART EQS.    BAND WIDTH + 1 =   26
 STRESS PERIOD=  1 TIMESTEP=606 LAYER=  1 ZONE=  2 ACTIVE CELLS= 1189 NUMBER OF EQUATIONS=    1189
 SOLVING FOR ZETA FOR LAYER     2 ZONE     2

     597 UPPER PART EQS.       600 LOWER PART EQS.    BAND WIDTH + 1 =   33
 STRESS PERIOD=  1 TIMESTEP=606 LAYER=  2 ZONE=  2 ACTIVE CELLS= 1197 NUMBER OF EQUATIONS=    1197

 SOLVING FOR HEAD 

 NO OUTPUT CONTROL FOR STRESS PERIOD    1   TIME STEP  607
 SOLVING FOR ZETA FOR LAYER     1 ZONE     2

     599 UPPER PART EQS.       588 LOWER PART EQS.    BAND WIDTH + 1 =   30
 STRESS PERIOD=  1 TIMESTEP=607 LAYER=  1 ZONE=  2 ACTIVE CELLS= 1187 NUMBER OF EQUATIONS=    1187
 SOLVING FOR ZETA FOR LAYER     2 ZONE     2

     601 UPPER PART EQS.       600 LOWER PART EQS.    BAND WIDTH + 1 =   34
 STRESS PERIOD=  1 TIMESTEP=607 LAYER=  2 ZONE=  2 ACTIVE CELLS= 1201 NUMBER OF EQUATIONS=    1201

 SOLVING FOR HEAD 

 NO OUTPUT CONTROL FOR STRESS PERIOD    1   TIME STEP  608
 SOLVING FOR ZETA FOR LAYER     1 ZONE     2

     601 UPPER PART EQS.       593 LOWER PART EQS.    BAND WIDTH + 1 =   27
 STRESS PERIOD=  1 TIMESTEP=608 LAYER=  1 ZONE=  2 ACTIVE CELLS= 1194 NUMBER OF EQUATIONS=    1194
 SOLVING FOR ZETA FOR LAYER     2 ZONE     2

     601 UPPER PART EQS.       604 LOWER PART EQS.    BAND WIDTH + 1 =   32
 STRESS PERIOD=  1 TIMESTEP=608 LAYER=  2 ZONE=  2 ACTIVE CELLS= 1205 NUMBER OF EQUATIONS=    1205

 SOLVING FOR HEAD 

 NO OUTPUT CONTROL FOR STRESS PERIOD    1   TIME STEP  609
 SOLVING FOR ZETA FOR LAYER     1 ZONE     2

     594 UPPER PART EQS.       592 LOWER PART EQS.    BAND WIDTH + 1 =   24
 STRESS PERIOD=  1 TIMESTEP=609 LAYER=  1 ZONE=  2 ACTIVE CELLS= 1186 NUMBER OF EQUATIONS=    1186
 SOLVING FOR ZETA FOR LAYER     2 ZONE     2

     601 UPPER PART EQS.       598 LOWER PART EQS.    BAND WIDTH + 1 =   32
 STRESS PERIOD=  1 TIMESTEP=609 LAYER=  2 ZONE=  2 ACTIVE CELLS= 1199 NUMBER OF EQUATIONS=    1199

 SOLVING FOR HEAD 

 NO OUTPUT CONTROL FOR STRESS PERIOD    1   TIME STEP  610
 SOLVING FOR ZETA FOR LAYER     1 ZONE     2

     595 UPPER PART EQS.       596 LOWER PART EQS.    BAND WIDTH + 1 =   24
 STRESS PERIOD=  1 TIMESTEP=610 LAYER=  1 ZONE=  2 ACTIVE CELLS= 1191 NUMBER OF EQUATIONS=    1191
 SOLVING FOR ZETA FOR LAYER     2 ZONE     2

     601 UPPER PART EQS.       602 LOWER PART EQS.    BAND WIDTH + 1 =   32
 STRESS PERIOD=  1 TIMESTEP=610 LAYER=  2 ZONE=  2 ACTIVE CELLS= 1203 NUMBER OF EQUATIONS=    1203

 SOLVING FOR HEAD 

 NO OUTPUT CONTROL FOR STRESS PERIOD    1   TIME STEP  611
 SOLVING FOR ZETA FOR LAYER     1 ZONE     2

     604 UPPER PART EQS.       589 LOWER PART EQS.    BAND WIDTH + 1 =   32
 STRESS PERIOD=  1 TIMESTEP=611 LAYER=  1 ZONE=  2 ACTIVE CELLS= 1193 NUMBER OF EQUATIONS=    1193
 SOLVING FOR ZETA FOR LAYER     2 ZONE     2

     601 UPPER PART EQS.       604 LOWER PART EQS.    BAND WIDTH + 1 =   32
 STRESS PERIOD=  1 TIMESTEP=611 LAYER=  2 ZONE=  2 ACTIVE CELLS= 1205 NUMBER OF EQUATIONS=    1205

 SOLVING FOR HEAD 

 NO OUTPUT CONTROL FOR STRESS PERIOD    1   TIME STEP  612
 SOLVING FOR ZETA FOR LAYER     1 ZONE     2

     596 UPPER PART EQS.       594 LOWER PART EQS.    BAND WIDTH + 1 =   24
 STRESS PERIOD=  1 TIMESTEP=612 LAYER=  1 ZONE=  2 ACTIVE CELLS= 1190 NUMBER OF EQUATIONS=    1190
 SOLVING FOR ZETA FOR LAYER     2 ZONE     2

     605 UPPER PART EQS.       604 LOWER PART EQS.    BAND WIDTH + 1 =   32
 STRESS PERIOD=  1 TIMESTEP=612 LAYER=  2 ZONE=  2 ACTIVE CELLS= 1209 NUMBER OF EQUATIONS=    1209

 SOLVING FOR HEAD 

 NO OUTPUT CONTROL FOR STRESS PERIOD    1   TIME STEP  613
 SOLVING FOR ZETA FOR LAYER     1 ZONE     2

     597 UPPER PART EQS.       594 LOWER PART EQS.    BAND WIDTH + 1 =   23
 STRESS PERIOD=  1 TIMESTEP=613 LAYER=  1 ZONE=  2 ACTIVE CELLS= 1191 NUMBER OF EQUATIONS=    1191
 SOLVING FOR ZETA FOR LAYER     2 ZONE     2

     605 UPPER PART EQS.       604 LOWER PART EQS.    BAND WIDTH + 1 =   32
 STRESS PERIOD=  1 TIMESTEP=613 LAYER=  2 ZONE=  2 ACTIVE CELLS= 1209 NUMBER OF EQUATIONS=    1209

 SOLVING FOR HEAD 

 NO OUTPUT CONTROL FOR STRESS PERIOD    1   TIME STEP  614
 SOLVING FOR ZETA FOR LAYER     1 ZONE     2

     602 UPPER PART EQS.       595 LOWER PART EQS.    BAND WIDTH + 1 =   26
 STRESS PERIOD=  1 TIMESTEP=614 LAYER=  1 ZONE=  2 ACTIVE CELLS= 1197 NUMBER OF EQUATIONS=    1197
 SOLVING FOR ZETA FOR LAYER     2 ZONE     2

     605 UPPER PART EQS.       604 LOWER PART EQS.    BAND WIDTH + 1 =   32
 STRESS PERIOD=  1 TIMESTEP=614 LAYER=  2 ZONE=  2 ACTIVE CELLS= 1209 NUMBER OF EQUATIONS=    1209

 SOLVING FOR HEAD 

 NO OUTPUT CONTROL FOR STRESS PERIOD    1   TIME STEP  615
 SOLVING FOR ZETA FOR LAYER     1 ZONE     2

     590 UPPER PART EQS.       590 LOWER PART EQS.    BAND WIDTH + 1 =   25
 STRESS PERIOD=  1 TIMESTEP=615 LAYER=  1 ZONE=  2 ACTIVE CELLS= 1180 NUMBER OF EQUATIONS=    1180
 SOLVING FOR ZETA FOR LAYER     2 ZONE     2

     605 UPPER PART EQS.       604 LOWER PART EQS.    BAND WIDTH + 1 =   32
 STRESS PERIOD=  1 TIMESTEP=615 LAYER=  2 ZONE=  2 ACTIVE CELLS= 1209 NUMBER OF EQUATIONS=    1209

 SOLVING FOR HEAD 

 NO OUTPUT CONTROL FOR STRESS PERIOD    1   TIME STEP  616
 SOLVING FOR ZETA FOR LAYER     1 ZONE     2

     600 UPPER PART EQS.       592 LOWER PART EQS.    BAND WIDTH + 1 =   26
 STRESS PERIOD=  1 TIMESTEP=616 LAYER=  1 ZONE=  2 ACTIVE CELLS= 1192 NUMBER OF EQUATIONS=    1192
 SOLVING FOR ZETA FOR LAYER     2 ZONE     2

     601 UPPER PART EQS.       604 LOWER PART EQS.    BAND WIDTH + 1 =   32
 STRESS PERIOD=  1 TIMESTEP=616 LAYER=  2 ZONE=  2 ACTIVE CELLS= 1205 NUMBER OF EQUATIONS=    1205

 SOLVING FOR HEAD 

 NO OUTPUT CONTROL FOR STRESS PERIOD    1   TIME STEP  617
 SOLVING FOR ZETA FOR LAYER     1 ZONE     2

     604 UPPER PART EQS.       594 LOWER PART EQS.    BAND WIDTH + 1 =   29
 STRESS PERIOD=  1 TIMESTEP=617 LAYER=  1 ZONE=  2 ACTIVE CELLS= 1198 NUMBER OF EQUATIONS=    1198
 SOLVING FOR ZETA FOR LAYER     2 ZONE     2

     603 UPPER PART EQS.       604 LOWER PART EQS.    BAND WIDTH + 1 =   32
 STRESS PERIOD=  1 TIMESTEP=617 LAYER=  2 ZONE=  2 ACTIVE CELLS= 1207 NUMBER OF EQUATIONS=    1207

 SOLVING FOR HEAD 

 NO OUTPUT CONTROL FOR STRESS PERIOD    1   TIME STEP  618
 SOLVING FOR ZETA FOR LAYER     1 ZONE     2

     590 UPPER PART EQS.       594 LOWER PART EQS.    BAND WIDTH + 1 =   30
 STRESS PERIOD=  1 TIMESTEP=618 LAYER=  1 ZONE=  2 ACTIVE CELLS= 1184 NUMBER OF EQUATIONS=    1184
 SOLVING FOR ZETA FOR LAYER     2 ZONE     2

     605 UPPER PART EQS.       604 LOWER PART EQS.    BAND WIDTH + 1 =   32
 STRESS PERIOD=  1 TIMESTEP=618 LAYER=  2 ZONE=  2 ACTIVE CELLS= 1209 NUMBER OF EQUATIONS=    1209

 SOLVING FOR HEAD 

 NO OUTPUT CONTROL FOR STRESS PERIOD    1   TIME STEP  619
 SOLVING FOR ZETA FOR LAYER     1 ZONE     2

     598 UPPER PART EQS.       590 LOWER PART EQS.    BAND WIDTH + 1 =   28
 STRESS PERIOD=  1 TIMESTEP=619 LAYER=  1 ZONE=  2 ACTIVE CELLS= 1188 NUMBER OF EQUATIONS=    1188
 SOLVING FOR ZETA FOR LAYER     2 ZONE     2

     605 UPPER PART EQS.       600 LOWER PART EQS.    BAND WIDTH + 1 =   32
 STRESS PERIOD=  1 TIMESTEP=619 LAYER=  2 ZONE=  2 ACTIVE CELLS= 1205 NUMBER OF EQUATIONS=    1205

 SOLVING FOR HEAD 

 NO OUTPUT CONTROL FOR STRESS PERIOD    1   TIME STEP  620
 SOLVING FOR ZETA FOR LAYER     1 ZONE     2

     598 UPPER PART EQS.       594 LOWER PART EQS.    BAND WIDTH + 1 =   24
 STRESS PERIOD=  1 TIMESTEP=620 LAYER=  1 ZONE=  2 ACTIVE CELLS= 1192 NUMBER OF EQUATIONS=    1192
 SOLVING FOR ZETA FOR LAYER     2 ZONE     2

     605 UPPER PART EQS.       602 LOWER PART EQS.    BAND WIDTH + 1 =   32
 STRESS PERIOD=  1 TIMESTEP=620 LAYER=  2 ZONE=  2 ACTIVE CELLS= 1207 NUMBER OF EQUATIONS=    1207

 SOLVING FOR HEAD 

 NO OUTPUT CONTROL FOR STRESS PERIOD    1   TIME STEP  621
 SOLVING FOR ZETA FOR LAYER     1 ZONE     2

     595 UPPER PART EQS.       591 LOWER PART EQS.    BAND WIDTH + 1 =   25
 STRESS PERIOD=  1 TIMESTEP=621 LAYER=  1 ZONE=  2 ACTIVE CELLS= 1186 NUMBER OF EQUATIONS=    1186
 SOLVING FOR ZETA FOR LAYER     2 ZONE     2

     605 UPPER PART EQS.       604 LOWER PART EQS.    BAND WIDTH + 1 =   32
 STRESS PERIOD=  1 TIMESTEP=621 LAYER=  2 ZONE=  2 ACTIVE CELLS= 1209 NUMBER OF EQUATIONS=    1209

 SOLVING FOR HEAD 

 NO OUTPUT CONTROL FOR STRESS PERIOD    1   TIME STEP  622
 SOLVING FOR ZETA FOR LAYER     1 ZONE     2

     600 UPPER PART EQS.       598 LOWER PART EQS.    BAND WIDTH + 1 =   25
 STRESS PERIOD=  1 TIMESTEP=622 LAYER=  1 ZONE=  2 ACTIVE CELLS= 1198 NUMBER OF EQUATIONS=    1198
 SOLVING FOR ZETA FOR LAYER     2 ZONE     2

     605 UPPER PART EQS.       600 LOWER PART EQS.    BAND WIDTH + 1 =   32
 STRESS PERIOD=  1 TIMESTEP=622 LAYER=  2 ZONE=  2 ACTIVE CELLS= 1205 NUMBER OF EQUATIONS=    1205

 SOLVING FOR HEAD 

 NO OUTPUT CONTROL FOR STRESS PERIOD    1   TIME STEP  623
 SOLVING FOR ZETA FOR LAYER     1 ZONE     2

     602 UPPER PART EQS.       588 LOWER PART EQS.    BAND WIDTH + 1 =   33
 STRESS PERIOD=  1 TIMESTEP=623 LAYER=  1 ZONE=  2 ACTIVE CELLS= 1190 NUMBER OF EQUATIONS=    1190
 SOLVING FOR ZETA FOR LAYER     2 ZONE     2

     605 UPPER PART EQS.       602 LOWER PART EQS.    BAND WIDTH + 1 =   32
 STRESS PERIOD=  1 TIMESTEP=623 LAYER=  2 ZONE=  2 ACTIVE CELLS= 1207 NUMBER OF EQUATIONS=    1207

 SOLVING FOR HEAD 

 NO OUTPUT CONTROL FOR STRESS PERIOD    1   TIME STEP  624
 SOLVING FOR ZETA FOR LAYER     1 ZONE     2

     591 UPPER PART EQS.       593 LOWER PART EQS.    BAND WIDTH + 1 =   25
 STRESS PERIOD=  1 TIMESTEP=624 LAYER=  1 ZONE=  2 ACTIVE CELLS= 1184 NUMBER OF EQUATIONS=    1184
 SOLVING FOR ZETA FOR LAYER     2 ZONE     2

     605 UPPER PART EQS.       604 LOWER PART EQS.    BAND WIDTH + 1 =   32
 STRESS PERIOD=  1 TIMESTEP=624 LAYER=  2 ZONE=  2 ACTIVE CELLS= 1209 NUMBER OF EQUATIONS=    1209

 SOLVING FOR HEAD 

 NO OUTPUT CONTROL FOR STRESS PERIOD    1   TIME STEP  625
 SOLVING FOR ZETA FOR LAYER     1 ZONE     2

     598 UPPER PART EQS.       587 LOWER PART EQS.    BAND WIDTH + 1 =   29
 STRESS PERIOD=  1 TIMESTEP=625 LAYER=  1 ZONE=  2 ACTIVE CELLS= 1185 NUMBER OF EQUATIONS=    1185
 SOLVING FOR ZETA FOR LAYER     2 ZONE     2

     605 UPPER PART EQS.       604 LOWER PART EQS.    BAND WIDTH + 1 =   32
 STRESS PERIOD=  1 TIMESTEP=625 LAYER=  2 ZONE=  2 ACTIVE CELLS= 1209 NUMBER OF EQUATIONS=    1209

 SOLVING FOR HEAD 

 NO OUTPUT CONTROL FOR STRESS PERIOD    1   TIME STEP  626
 SOLVING FOR ZETA FOR LAYER     1 ZONE     2

     600 UPPER PART EQS.       596 LOWER PART EQS.    BAND WIDTH + 1 =   24
 STRESS PERIOD=  1 TIMESTEP=626 LAYER=  1 ZONE=  2 ACTIVE CELLS= 1196 NUMBER OF EQUATIONS=    1196
 SOLVING FOR ZETA FOR LAYER     2 ZONE     2

     605 UPPER PART EQS.       604 LOWER PART EQS.    BAND WIDTH + 1 =   32
 STRESS PERIOD=  1 TIMESTEP=626 LAYER=  2 ZONE=  2 ACTIVE CELLS= 1209 NUMBER OF EQUATIONS=    1209

 SOLVING FOR HEAD 

 NO OUTPUT CONTROL FOR STRESS PERIOD    1   TIME STEP  627
 SOLVING FOR ZETA FOR LAYER     1 ZONE     2

     591 UPPER PART EQS.       588 LOWER PART EQS.    BAND WIDTH + 1 =   25
 STRESS PERIOD=  1 TIMESTEP=627 LAYER=  1 ZONE=  2 ACTIVE CELLS= 1179 NUMBER OF EQUATIONS=    1179
 SOLVING FOR ZETA FOR LAYER     2 ZONE     2

     605 UPPER PART EQS.       604 LOWER PART EQS.    BAND WIDTH + 1 =   32
 STRESS PERIOD=  1 TIMESTEP=627 LAYER=  2 ZONE=  2 ACTIVE CELLS= 1209 NUMBER OF EQUATIONS=    1209

 SOLVING FOR HEAD 

 NO OUTPUT CONTROL FOR STRESS PERIOD    1   TIME STEP  628
 SOLVING FOR ZETA FOR LAYER     1 ZONE     2

     596 UPPER PART EQS.       587 LOWER PART EQS.    BAND WIDTH + 1 =   27
 STRESS PERIOD=  1 TIMESTEP=628 LAYER=  1 ZONE=  2 ACTIVE CELLS= 1183 NUMBER OF EQUATIONS=    1183
 SOLVING FOR ZETA FOR LAYER     2 ZONE     2

     605 UPPER PART EQS.       604 LOWER PART EQS.    BAND WIDTH + 1 =   32
 STRESS PERIOD=  1 TIMESTEP=628 LAYER=  2 ZONE=  2 ACTIVE CELLS= 1209 NUMBER OF EQUATIONS=    1209

 SOLVING FOR HEAD 

 NO OUTPUT CONTROL FOR STRESS PERIOD    1   TIME STEP  629
 SOLVING FOR ZETA FOR LAYER     1 ZONE     2

     601 UPPER PART EQS.       592 LOWER PART EQS.    BAND WIDTH + 1 =   30
 STRESS PERIOD=  1 TIMESTEP=629 LAYER=  1 ZONE=  2 ACTIVE CELLS= 1193 NUMBER OF EQUATIONS=    1193
 SOLVING FOR ZETA FOR LAYER     2 ZONE     2

     605 UPPER PART EQS.       604 LOWER PART EQS.    BAND WIDTH + 1 =   32
 STRESS PERIOD=  1 TIMESTEP=629 LAYER=  2 ZONE=  2 ACTIVE CELLS= 1209 NUMBER OF EQUATIONS=    1209

 SOLVING FOR HEAD 

 NO OUTPUT CONTROL FOR STRESS PERIOD    1   TIME STEP  630
 SOLVING FOR ZETA FOR LAYER     1 ZONE     2

     593 UPPER PART EQS.       593 LOWER PART EQS.    BAND WIDTH + 1 =   24
 STRESS PERIOD=  1 TIMESTEP=630 LAYER=  1 ZONE=  2 ACTIVE CELLS= 1186 NUMBER OF EQUATIONS=    1186
 SOLVING FOR ZETA FOR LAYER     2 ZONE     2

     605 UPPER PART EQS.       604 LOWER PART EQS.    BAND WIDTH + 1 =   32
 STRESS PERIOD=  1 TIMESTEP=630 LAYER=  2 ZONE=  2 ACTIVE CELLS= 1209 NUMBER OF EQUATIONS=    1209

 SOLVING FOR HEAD 

 NO OUTPUT CONTROL FOR STRESS PERIOD    1   TIME STEP  631
 SOLVING FOR ZETA FOR LAYER     1 ZONE     2

     596 UPPER PART EQS.       587 LOWER PART EQS.    BAND WIDTH + 1 =   29
 STRESS PERIOD=  1 TIMESTEP=631 LAYER=  1 ZONE=  2 ACTIVE CELLS= 1183 NUMBER OF EQUATIONS=    1183
 SOLVING FOR ZETA FOR LAYER     2 ZONE     2

     605 UPPER PART EQS.       600 LOWER PART EQS.    BAND WIDTH + 1 =   32
 STRESS PERIOD=  1 TIMESTEP=631 LAYER=  2 ZONE=  2 ACTIVE CELLS= 1205 NUMBER OF EQUATIONS=    1205

 SOLVING FOR HEAD 

 NO OUTPUT CONTROL FOR STRESS PERIOD    1   TIME STEP  632
 SOLVING FOR ZETA FOR LAYER     1 ZONE     2

     596 UPPER PART EQS.       593 LOWER PART EQS.    BAND WIDTH + 1 =   23
 STRESS PERIOD=  1 TIMESTEP=632 LAYER=  1 ZONE=  2 ACTIVE CELLS= 1189 NUMBER OF EQUATIONS=    1189
 SOLVING FOR ZETA FOR LAYER     2 ZONE     2

     599 UPPER PART EQS.       604 LOWER PART EQS.    BAND WIDTH + 1 =   32
 STRESS PERIOD=  1 TIMESTEP=632 LAYER=  2 ZONE=  2 ACTIVE CELLS= 1203 NUMBER OF EQUATIONS=    1203

 SOLVING FOR HEAD 

 NO OUTPUT CONTROL FOR STRESS PERIOD    1   TIME STEP  633
 SOLVING FOR ZETA FOR LAYER     1 ZONE     2

     586 UPPER PART EQS.       590 LOWER PART EQS.    BAND WIDTH + 1 =   28
 STRESS PERIOD=  1 TIMESTEP=633 LAYER=  1 ZONE=  2 ACTIVE CELLS= 1176 NUMBER OF EQUATIONS=    1176
 SOLVING FOR ZETA FOR LAYER     2 ZONE     2

     605 UPPER PART EQS.       604 LOWER PART EQS.    BAND WIDTH + 1 =   32
 STRESS PERIOD=  1 TIMESTEP=633 LAYER=  2 ZONE=  2 ACTIVE CELLS= 1209 NUMBER OF EQUATIONS=    1209

 SOLVING FOR HEAD 

 NO OUTPUT CONTROL FOR STRESS PERIOD    1   TIME STEP  634
 SOLVING FOR ZETA FOR LAYER     1 ZONE     2

     600 UPPER PART EQS.       588 LOWER PART EQS.    BAND WIDTH + 1 =   32
 STRESS PERIOD=  1 TIMESTEP=634 LAYER=  1 ZONE=  2 ACTIVE CELLS= 1188 NUMBER OF EQUATIONS=    1188
 SOLVING FOR ZETA FOR LAYER     2 ZONE     2

     601 UPPER PART EQS.       604 LOWER PART EQS.    BAND WIDTH + 1 =   32
 STRESS PERIOD=  1 TIMESTEP=634 LAYER=  2 ZONE=  2 ACTIVE CELLS= 1205 NUMBER OF EQUATIONS=    1205

 SOLVING FOR HEAD 

 NO OUTPUT CONTROL FOR STRESS PERIOD    1   TIME STEP  635
 SOLVING FOR ZETA FOR LAYER     1 ZONE     2

     602 UPPER PART EQS.       591 LOWER PART EQS.    BAND WIDTH + 1 =   31
 STRESS PERIOD=  1 TIMESTEP=635 LAYER=  1 ZONE=  2 ACTIVE CELLS= 1193 NUMBER OF EQUATIONS=    1193
 SOLVING FOR ZETA FOR LAYER     2 ZONE     2

     605 UPPER PART EQS.       602 LOWER PART EQS.    BAND WIDTH + 1 =   32
 STRESS PERIOD=  1 TIMESTEP=635 LAYER=  2 ZONE=  2 ACTIVE CELLS= 1207 NUMBER OF EQUATIONS=    1207

 SOLVING FOR HEAD 

 NO OUTPUT CONTROL FOR STRESS PERIOD    1   TIME STEP  636
 SOLVING FOR ZETA FOR LAYER     1 ZONE     2

     591 UPPER PART EQS.       593 LOWER PART EQS.    BAND WIDTH + 1 =   25
 STRESS PERIOD=  1 TIMESTEP=636 LAYER=  1 ZONE=  2 ACTIVE CELLS= 1184 NUMBER OF EQUATIONS=    1184
 SOLVING FOR ZETA FOR LAYER     2 ZONE     2

     605 UPPER PART EQS.       604 LOWER PART EQS.    BAND WIDTH + 1 =   32
 STRESS PERIOD=  1 TIMESTEP=636 LAYER=  2 ZONE=  2 ACTIVE CELLS= 1209 NUMBER OF EQUATIONS=    1209

 SOLVING FOR HEAD 

 NO OUTPUT CONTROL FOR STRESS PERIOD    1   TIME STEP  637
 SOLVING FOR ZETA FOR LAYER     1 ZONE     2

     594 UPPER PART EQS.       582 LOWER PART EQS.    BAND WIDTH + 1 =   32
 STRESS PERIOD=  1 TIMESTEP=637 LAYER=  1 ZONE=  2 ACTIVE CELLS= 1176 NUMBER OF EQUATIONS=    1176
 SOLVING FOR ZETA FOR LAYER     2 ZONE     2

     605 UPPER PART EQS.       604 LOWER PART EQS.    BAND WIDTH + 1 =   32
 STRESS PERIOD=  1 TIMESTEP=637 LAYER=  2 ZONE=  2 ACTIVE CELLS= 1209 NUMBER OF EQUATIONS=    1209

 SOLVING FOR HEAD 

 NO OUTPUT CONTROL FOR STRESS PERIOD    1   TIME STEP  638
 SOLVING FOR ZETA FOR LAYER     1 ZONE     2

     592 UPPER PART EQS.       590 LOWER PART EQS.    BAND WIDTH + 1 =   23
 STRESS PERIOD=  1 TIMESTEP=638 LAYER=  1 ZONE=  2 ACTIVE CELLS= 1182 NUMBER OF EQUATIONS=    1182
 SOLVING FOR ZETA FOR LAYER     2 ZONE     2

     605 UPPER PART EQS.       604 LOWER PART EQS.    BAND WIDTH + 1 =   32
 STRESS PERIOD=  1 TIMESTEP=638 LAYER=  2 ZONE=  2 ACTIVE CELLS= 1209 NUMBER OF EQUATIONS=    1209

 SOLVING FOR HEAD 

 NO OUTPUT CONTROL FOR STRESS PERIOD    1   TIME STEP  639
 SOLVING FOR ZETA FOR LAYER     1 ZONE     2

     595 UPPER PART EQS.       588 LOWER PART EQS.    BAND WIDTH + 1 =   29
 STRESS PERIOD=  1 TIMESTEP=639 LAYER=  1 ZONE=  2 ACTIVE CELLS= 1183 NUMBER OF EQUATIONS=    1183
 SOLVING FOR ZETA FOR LAYER     2 ZONE     2

     605 UPPER PART EQS.       604 LOWER PART EQS.    BAND WIDTH + 1 =   32
 STRESS PERIOD=  1 TIMESTEP=639 LAYER=  2 ZONE=  2 ACTIVE CELLS= 1209 NUMBER OF EQUATIONS=    1209

 SOLVING FOR HEAD 

 NO OUTPUT CONTROL FOR STRESS PERIOD    1   TIME STEP  640
 SOLVING FOR ZETA FOR LAYER     1 ZONE     2

     602 UPPER PART EQS.       583 LOWER PART EQS.    BAND WIDTH + 1 =   36
 STRESS PERIOD=  1 TIMESTEP=640 LAYER=  1 ZONE=  2 ACTIVE CELLS= 1185 NUMBER OF EQUATIONS=    1185
 SOLVING FOR ZETA FOR LAYER     2 ZONE     2

     609 UPPER PART EQS.       602 LOWER PART EQS.    BAND WIDTH + 1 =   32
 STRESS PERIOD=  1 TIMESTEP=640 LAYER=  2 ZONE=  2 ACTIVE CELLS= 1211 NUMBER OF EQUATIONS=    1211

 SOLVING FOR HEAD 

 NO OUTPUT CONTROL FOR STRESS PERIOD    1   TIME STEP  641
 SOLVING FOR ZETA FOR LAYER     1 ZONE     2

     594 UPPER PART EQS.       591 LOWER PART EQS.    BAND WIDTH + 1 =   25
 STRESS PERIOD=  1 TIMESTEP=641 LAYER=  1 ZONE=  2 ACTIVE CELLS= 1185 NUMBER OF EQUATIONS=    1185
 SOLVING FOR ZETA FOR LAYER     2 ZONE     2

     611 UPPER PART EQS.       604 LOWER PART EQS.    BAND WIDTH + 1 =   32
 STRESS PERIOD=  1 TIMESTEP=641 LAYER=  2 ZONE=  2 ACTIVE CELLS= 1215 NUMBER OF EQUATIONS=    1215

 SOLVING FOR HEAD 

 NO OUTPUT CONTROL FOR STRESS PERIOD    1   TIME STEP  642
 SOLVING FOR ZETA FOR LAYER     1 ZONE     2

     589 UPPER PART EQS.       595 LOWER PART EQS.    BAND WIDTH + 1 =   29
 STRESS PERIOD=  1 TIMESTEP=642 LAYER=  1 ZONE=  2 ACTIVE CELLS= 1184 NUMBER OF EQUATIONS=    1184
 SOLVING FOR ZETA FOR LAYER     2 ZONE     2

     613 UPPER PART EQS.       604 LOWER PART EQS.    BAND WIDTH + 1 =   32
 STRESS PERIOD=  1 TIMESTEP=642 LAYER=  2 ZONE=  2 ACTIVE CELLS= 1217 NUMBER OF EQUATIONS=    1217

 SOLVING FOR HEAD 

 NO OUTPUT CONTROL FOR STRESS PERIOD    1   TIME STEP  643
 SOLVING FOR ZETA FOR LAYER     1 ZONE     2

     594 UPPER PART EQS.       582 LOWER PART EQS.    BAND WIDTH + 1 =   32
 STRESS PERIOD=  1 TIMESTEP=643 LAYER=  1 ZONE=  2 ACTIVE CELLS= 1176 NUMBER OF EQUATIONS=    1176
 SOLVING FOR ZETA FOR LAYER     2 ZONE     2

     613 UPPER PART EQS.       604 LOWER PART EQS.    BAND WIDTH + 1 =   32
 STRESS PERIOD=  1 TIMESTEP=643 LAYER=  2 ZONE=  2 ACTIVE CELLS= 1217 NUMBER OF EQUATIONS=    1217

 SOLVING FOR HEAD 

 NO OUTPUT CONTROL FOR STRESS PERIOD    1   TIME STEP  644
 SOLVING FOR ZETA FOR LAYER     1 ZONE     2

     598 UPPER PART EQS.       587 LOWER PART EQS.    BAND WIDTH + 1 =   30
 STRESS PERIOD=  1 TIMESTEP=644 LAYER=  1 ZONE=  2 ACTIVE CELLS= 1185 NUMBER OF EQUATIONS=    1185
 SOLVING FOR ZETA FOR LAYER     2 ZONE     2

     613 UPPER PART EQS.       604 LOWER PART EQS.    BAND WIDTH + 1 =   32
 STRESS PERIOD=  1 TIMESTEP=644 LAYER=  2 ZONE=  2 ACTIVE CELLS= 1217 NUMBER OF EQUATIONS=    1217

 SOLVING FOR HEAD 

 NO OUTPUT CONTROL FOR STRESS PERIOD    1   TIME STEP  645
 SOLVING FOR ZETA FOR LAYER     1 ZONE     2

     591 UPPER PART EQS.       588 LOWER PART EQS.    BAND WIDTH + 1 =   25
 STRESS PERIOD=  1 TIMESTEP=645 LAYER=  1 ZONE=  2 ACTIVE CELLS= 1179 NUMBER OF EQUATIONS=    1179
 SOLVING FOR ZETA FOR LAYER     2 ZONE     2

     613 UPPER PART EQS.       600 LOWER PART EQS.    BAND WIDTH + 1 =   32
 STRESS PERIOD=  1 TIMESTEP=645 LAYER=  2 ZONE=  2 ACTIVE CELLS= 1213 NUMBER OF EQUATIONS=    1213

 SOLVING FOR HEAD 

 NO OUTPUT CONTROL FOR STRESS PERIOD    1   TIME STEP  646
 SOLVING FOR ZETA FOR LAYER     1 ZONE     2

     598 UPPER PART EQS.       587 LOWER PART EQS.    BAND WIDTH + 1 =   30
 STRESS PERIOD=  1 TIMESTEP=646 LAYER=  1 ZONE=  2 ACTIVE CELLS= 1185 NUMBER OF EQUATIONS=    1185
 SOLVING FOR ZETA FOR LAYER     2 ZONE     2

     613 UPPER PART EQS.       604 LOWER PART EQS.    BAND WIDTH + 1 =   32
 STRESS PERIOD=  1 TIMESTEP=646 LAYER=  2 ZONE=  2 ACTIVE CELLS= 1217 NUMBER OF EQUATIONS=    1217

 SOLVING FOR HEAD 

 NO OUTPUT CONTROL FOR STRESS PERIOD    1   TIME STEP  647
 SOLVING FOR ZETA FOR LAYER     1 ZONE     2

     600 UPPER PART EQS.       590 LOWER PART EQS.    BAND WIDTH + 1 =   31
 STRESS PERIOD=  1 TIMESTEP=647 LAYER=  1 ZONE=  2 ACTIVE CELLS= 1190 NUMBER OF EQUATIONS=    1190
 SOLVING FOR ZETA FOR LAYER     2 ZONE     2

     613 UPPER PART EQS.       604 LOWER PART EQS.    BAND WIDTH + 1 =   32
 STRESS PERIOD=  1 TIMESTEP=647 LAYER=  2 ZONE=  2 ACTIVE CELLS= 1217 NUMBER OF EQUATIONS=    1217

 SOLVING FOR HEAD 

 NO OUTPUT CONTROL FOR STRESS PERIOD    1   TIME STEP  648
 SOLVING FOR ZETA FOR LAYER     1 ZONE     2

     587 UPPER PART EQS.       591 LOWER PART EQS.    BAND WIDTH + 1 =   28
 STRESS PERIOD=  1 TIMESTEP=648 LAYER=  1 ZONE=  2 ACTIVE CELLS= 1178 NUMBER OF EQUATIONS=    1178
 SOLVING FOR ZETA FOR LAYER     2 ZONE     2

     613 UPPER PART EQS.       604 LOWER PART EQS.    BAND WIDTH + 1 =   32
 STRESS PERIOD=  1 TIMESTEP=648 LAYER=  2 ZONE=  2 ACTIVE CELLS= 1217 NUMBER OF EQUATIONS=    1217

 SOLVING FOR HEAD 

 NO OUTPUT CONTROL FOR STRESS PERIOD    1   TIME STEP  649
 SOLVING FOR ZETA FOR LAYER     1 ZONE     2

     594 UPPER PART EQS.       579 LOWER PART EQS.    BAND WIDTH + 1 =   33
 STRESS PERIOD=  1 TIMESTEP=649 LAYER=  1 ZONE=  2 ACTIVE CELLS= 1173 NUMBER OF EQUATIONS=    1173
 SOLVING FOR ZETA FOR LAYER     2 ZONE     2

     609 UPPER PART EQS.       604 LOWER PART EQS.    BAND WIDTH + 1 =   32
 STRESS PERIOD=  1 TIMESTEP=649 LAYER=  2 ZONE=  2 ACTIVE CELLS= 1213 NUMBER OF EQUATIONS=    1213

 SOLVING FOR HEAD 

 NO OUTPUT CONTROL FOR STRESS PERIOD    1   TIME STEP  650
 SOLVING FOR ZETA FOR LAYER     1 ZONE     2

     598 UPPER PART EQS.       590 LOWER PART EQS.    BAND WIDTH + 1 =   27
 STRESS PERIOD=  1 TIMESTEP=650 LAYER=  1 ZONE=  2 ACTIVE CELLS= 1188 NUMBER OF EQUATIONS=    1188
 SOLVING FOR ZETA FOR LAYER     2 ZONE     2

     607 UPPER PART EQS.       604 LOWER PART EQS.    BAND WIDTH + 1 =   32
 STRESS PERIOD=  1 TIMESTEP=650 LAYER=  2 ZONE=  2 ACTIVE CELLS= 1211 NUMBER OF EQUATIONS=    1211

 SOLVING FOR HEAD 

 NO OUTPUT CONTROL FOR STRESS PERIOD    1   TIME STEP  651
 SOLVING FOR ZETA FOR LAYER     1 ZONE     2

     592 UPPER PART EQS.       589 LOWER PART EQS.    BAND WIDTH + 1 =   26
 STRESS PERIOD=  1 TIMESTEP=651 LAYER=  1 ZONE=  2 ACTIVE CELLS= 1181 NUMBER OF EQUATIONS=    1181
 SOLVING FOR ZETA FOR LAYER     2 ZONE     2

     607 UPPER PART EQS.       604 LOWER PART EQS.    BAND WIDTH + 1 =   32
 STRESS PERIOD=  1 TIMESTEP=651 LAYER=  2 ZONE=  2 ACTIVE CELLS= 1211 NUMBER OF EQUATIONS=    1211

 SOLVING FOR HEAD 

 NO OUTPUT CONTROL FOR STRESS PERIOD    1   TIME STEP  652
 SOLVING FOR ZETA FOR LAYER     1 ZONE     2

     597 UPPER PART EQS.       592 LOWER PART EQS.    BAND WIDTH + 1 =   27
 STRESS PERIOD=  1 TIMESTEP=652 LAYER=  1 ZONE=  2 ACTIVE CELLS= 1189 NUMBER OF EQUATIONS=    1189
 SOLVING FOR ZETA FOR LAYER     2 ZONE     2

     609 UPPER PART EQS.       602 LOWER PART EQS.    BAND WIDTH + 1 =   32
 STRESS PERIOD=  1 TIMESTEP=652 LAYER=  2 ZONE=  2 ACTIVE CELLS= 1211 NUMBER OF EQUATIONS=    1211

 SOLVING FOR HEAD 

 NO OUTPUT CONTROL FOR STRESS PERIOD    1   TIME STEP  653
 SOLVING FOR ZETA FOR LAYER     1 ZONE     2

     596 UPPER PART EQS.       587 LOWER PART EQS.    BAND WIDTH + 1 =   29
 STRESS PERIOD=  1 TIMESTEP=653 LAYER=  1 ZONE=  2 ACTIVE CELLS= 1183 NUMBER OF EQUATIONS=    1183
 SOLVING FOR ZETA FOR LAYER     2 ZONE     2

     611 UPPER PART EQS.       604 LOWER PART EQS.    BAND WIDTH + 1 =   32
 STRESS PERIOD=  1 TIMESTEP=653 LAYER=  2 ZONE=  2 ACTIVE CELLS= 1215 NUMBER OF EQUATIONS=    1215

 SOLVING FOR HEAD 

 NO OUTPUT CONTROL FOR STRESS PERIOD    1   TIME STEP  654
 SOLVING FOR ZETA FOR LAYER     1 ZONE     2

     592 UPPER PART EQS.       593 LOWER PART EQS.    BAND WIDTH + 1 =   25
 STRESS PERIOD=  1 TIMESTEP=654 LAYER=  1 ZONE=  2 ACTIVE CELLS= 1185 NUMBER OF EQUATIONS=    1185
 SOLVING FOR ZETA FOR LAYER     2 ZONE     2

     613 UPPER PART EQS.       604 LOWER PART EQS.    BAND WIDTH + 1 =   32
 STRESS PERIOD=  1 TIMESTEP=654 LAYER=  2 ZONE=  2 ACTIVE CELLS= 1217 NUMBER OF EQUATIONS=    1217

 SOLVING FOR HEAD 

 NO OUTPUT CONTROL FOR STRESS PERIOD    1   TIME STEP  655
 SOLVING FOR ZETA FOR LAYER     1 ZONE     2

     597 UPPER PART EQS.       580 LOWER PART EQS.    BAND WIDTH + 1 =   36
 STRESS PERIOD=  1 TIMESTEP=655 LAYER=  1 ZONE=  2 ACTIVE CELLS= 1177 NUMBER OF EQUATIONS=    1177
 SOLVING FOR ZETA FOR LAYER     2 ZONE     2

     613 UPPER PART EQS.       604 LOWER PART EQS.    BAND WIDTH + 1 =   32
 STRESS PERIOD=  1 TIMESTEP=655 LAYER=  2 ZONE=  2 ACTIVE CELLS= 1217 NUMBER OF EQUATIONS=    1217

 SOLVING FOR HEAD 

 NO OUTPUT CONTROL FOR STRESS PERIOD    1   TIME STEP  656
 SOLVING FOR ZETA FOR LAYER     1 ZONE     2

     594 UPPER PART EQS.       590 LOWER PART EQS.    BAND WIDTH + 1 =   24
 STRESS PERIOD=  1 TIMESTEP=656 LAYER=  1 ZONE=  2 ACTIVE CELLS= 1184 NUMBER OF EQUATIONS=    1184
 SOLVING FOR ZETA FOR LAYER     2 ZONE     2

     613 UPPER PART EQS.       604 LOWER PART EQS.    BAND WIDTH + 1 =   32
 STRESS PERIOD=  1 TIMESTEP=656 LAYER=  2 ZONE=  2 ACTIVE CELLS= 1217 NUMBER OF EQUATIONS=    1217

 SOLVING FOR HEAD 

 NO OUTPUT CONTROL FOR STRESS PERIOD    1   TIME STEP  657
 SOLVING FOR ZETA FOR LAYER     1 ZONE     2

     590 UPPER PART EQS.       589 LOWER PART EQS.    BAND WIDTH + 1 =   23
 STRESS PERIOD=  1 TIMESTEP=657 LAYER=  1 ZONE=  2 ACTIVE CELLS= 1179 NUMBER OF EQUATIONS=    1179
 SOLVING FOR ZETA FOR LAYER     2 ZONE     2

     613 UPPER PART EQS.       604 LOWER PART EQS.    BAND WIDTH + 1 =   32
 STRESS PERIOD=  1 TIMESTEP=657 LAYER=  2 ZONE=  2 ACTIVE CELLS= 1217 NUMBER OF EQUATIONS=    1217

 SOLVING FOR HEAD 

 NO OUTPUT CONTROL FOR STRESS PERIOD    1   TIME STEP  658
 SOLVING FOR ZETA FOR LAYER     1 ZONE     2

     598 UPPER PART EQS.       590 LOWER PART EQS.    BAND WIDTH + 1 =   30
 STRESS PERIOD=  1 TIMESTEP=658 LAYER=  1 ZONE=  2 ACTIVE CELLS= 1188 NUMBER OF EQUATIONS=    1188
 SOLVING FOR ZETA FOR LAYER     2 ZONE     2

     609 UPPER PART EQS.       602 LOWER PART EQS.    BAND WIDTH + 1 =   32
 STRESS PERIOD=  1 TIMESTEP=658 LAYER=  2 ZONE=  2 ACTIVE CELLS= 1211 NUMBER OF EQUATIONS=    1211

 SOLVING FOR HEAD 

 NO OUTPUT CONTROL FOR STRESS PERIOD    1   TIME STEP  659
 SOLVING FOR ZETA FOR LAYER     1 ZONE     2

     599 UPPER PART EQS.       586 LOWER PART EQS.    BAND WIDTH + 1 =   32
 STRESS PERIOD=  1 TIMESTEP=659 LAYER=  1 ZONE=  2 ACTIVE CELLS= 1185 NUMBER OF EQUATIONS=    1185
 SOLVING FOR ZETA FOR LAYER     2 ZONE     2

     613 UPPER PART EQS.       604 LOWER PART EQS.    BAND WIDTH + 1 =   32
 STRESS PERIOD=  1 TIMESTEP=659 LAYER=  2 ZONE=  2 ACTIVE CELLS= 1217 NUMBER OF EQUATIONS=    1217

 SOLVING FOR HEAD 

 NO OUTPUT CONTROL FOR STRESS PERIOD    1   TIME STEP  660
 SOLVING FOR ZETA FOR LAYER     1 ZONE     2

     588 UPPER PART EQS.       588 LOWER PART EQS.    BAND WIDTH + 1 =   25
 STRESS PERIOD=  1 TIMESTEP=660 LAYER=  1 ZONE=  2 ACTIVE CELLS= 1176 NUMBER OF EQUATIONS=    1176
 SOLVING FOR ZETA FOR LAYER     2 ZONE     2

     613 UPPER PART EQS.       602 LOWER PART EQS.    BAND WIDTH + 1 =   32
 STRESS PERIOD=  1 TIMESTEP=660 LAYER=  2 ZONE=  2 ACTIVE CELLS= 1215 NUMBER OF EQUATIONS=    1215

 SOLVING FOR HEAD 

 NO OUTPUT CONTROL FOR STRESS PERIOD    1   TIME STEP  661
 SOLVING FOR ZETA FOR LAYER     1 ZONE     2

     600 UPPER PART EQS.       582 LOWER PART EQS.    BAND WIDTH + 1 =   37
 STRESS PERIOD=  1 TIMESTEP=661 LAYER=  1 ZONE=  2 ACTIVE CELLS= 1182 NUMBER OF EQUATIONS=    1182
 SOLVING FOR ZETA FOR LAYER     2 ZONE     2

     611 UPPER PART EQS.       602 LOWER PART EQS.    BAND WIDTH + 1 =   32
 STRESS PERIOD=  1 TIMESTEP=661 LAYER=  2 ZONE=  2 ACTIVE CELLS= 1213 NUMBER OF EQUATIONS=    1213

 SOLVING FOR HEAD 

 NO OUTPUT CONTROL FOR STRESS PERIOD    1   TIME STEP  662
 SOLVING FOR ZETA FOR LAYER     1 ZONE     2

     595 UPPER PART EQS.       597 LOWER PART EQS.    BAND WIDTH + 1 =   25
 STRESS PERIOD=  1 TIMESTEP=662 LAYER=  1 ZONE=  2 ACTIVE CELLS= 1192 NUMBER OF EQUATIONS=    1192
 SOLVING FOR ZETA FOR LAYER     2 ZONE     2

     611 UPPER PART EQS.       604 LOWER PART EQS.    BAND WIDTH + 1 =   32
 STRESS PERIOD=  1 TIMESTEP=662 LAYER=  2 ZONE=  2 ACTIVE CELLS= 1215 NUMBER OF EQUATIONS=    1215

 SOLVING FOR HEAD 

 NO OUTPUT CONTROL FOR STRESS PERIOD    1   TIME STEP  663
 SOLVING FOR ZETA FOR LAYER     1 ZONE     2

     594 UPPER PART EQS.       588 LOWER PART EQS.    BAND WIDTH + 1 =   28
 STRESS PERIOD=  1 TIMESTEP=663 LAYER=  1 ZONE=  2 ACTIVE CELLS= 1182 NUMBER OF EQUATIONS=    1182
 SOLVING FOR ZETA FOR LAYER     2 ZONE     2

     609 UPPER PART EQS.       604 LOWER PART EQS.    BAND WIDTH + 1 =   32
 STRESS PERIOD=  1 TIMESTEP=663 LAYER=  2 ZONE=  2 ACTIVE CELLS= 1213 NUMBER OF EQUATIONS=    1213

 SOLVING FOR HEAD 

 NO OUTPUT CONTROL FOR STRESS PERIOD    1   TIME STEP  664
 SOLVING FOR ZETA FOR LAYER     1 ZONE     2

     592 UPPER PART EQS.       587 LOWER PART EQS.    BAND WIDTH + 1 =   26
 STRESS PERIOD=  1 TIMESTEP=664 LAYER=  1 ZONE=  2 ACTIVE CELLS= 1179 NUMBER OF EQUATIONS=    1179
 SOLVING FOR ZETA FOR LAYER     2 ZONE     2

     613 UPPER PART EQS.       604 LOWER PART EQS.    BAND WIDTH + 1 =   32
 STRESS PERIOD=  1 TIMESTEP=664 LAYER=  2 ZONE=  2 ACTIVE CELLS= 1217 NUMBER OF EQUATIONS=    1217

 SOLVING FOR HEAD 

 NO OUTPUT CONTROL FOR STRESS PERIOD    1   TIME STEP  665
 SOLVING FOR ZETA FOR LAYER     1 ZONE     2

     598 UPPER PART EQS.       593 LOWER PART EQS.    BAND WIDTH + 1 =   25
 STRESS PERIOD=  1 TIMESTEP=665 LAYER=  1 ZONE=  2 ACTIVE CELLS= 1191 NUMBER OF EQUATIONS=    1191
 SOLVING FOR ZETA FOR LAYER     2 ZONE     2

     613 UPPER PART EQS.       604 LOWER PART EQS.    BAND WIDTH + 1 =   32
 STRESS PERIOD=  1 TIMESTEP=665 LAYER=  2 ZONE=  2 ACTIVE CELLS= 1217 NUMBER OF EQUATIONS=    1217

 SOLVING FOR HEAD 

 NO OUTPUT CONTROL FOR STRESS PERIOD    1   TIME STEP  666
 SOLVING FOR ZETA FOR LAYER     1 ZONE     2

     589 UPPER PART EQS.       584 LOWER PART EQS.    BAND WIDTH + 1 =   24
 STRESS PERIOD=  1 TIMESTEP=666 LAYER=  1 ZONE=  2 ACTIVE CELLS= 1173 NUMBER OF EQUATIONS=    1173
 SOLVING FOR ZETA FOR LAYER     2 ZONE     2

     613 UPPER PART EQS.       604 LOWER PART EQS.    BAND WIDTH + 1 =   32
 STRESS PERIOD=  1 TIMESTEP=666 LAYER=  2 ZONE=  2 ACTIVE CELLS= 1217 NUMBER OF EQUATIONS=    1217

 SOLVING FOR HEAD 

 NO OUTPUT CONTROL FOR STRESS PERIOD    1   TIME STEP  667
 SOLVING FOR ZETA FOR LAYER     1 ZONE     2

     602 UPPER PART EQS.       581 LOWER PART EQS.    BAND WIDTH + 1 =   41
 STRESS PERIOD=  1 TIMESTEP=667 LAYER=  1 ZONE=  2 ACTIVE CELLS= 1183 NUMBER OF EQUATIONS=    1183
 SOLVING FOR ZETA FOR LAYER     2 ZONE     2

     611 UPPER PART EQS.       604 LOWER PART EQS.    BAND WIDTH + 1 =   32
 STRESS PERIOD=  1 TIMESTEP=667 LAYER=  2 ZONE=  2 ACTIVE CELLS= 1215 NUMBER OF EQUATIONS=    1215

 SOLVING FOR HEAD 

 NO OUTPUT CONTROL FOR STRESS PERIOD    1   TIME STEP  668
 SOLVING FOR ZETA FOR LAYER     1 ZONE     2

     594 UPPER PART EQS.       598 LOWER PART EQS.    BAND WIDTH + 1 =   27
 STRESS PERIOD=  1 TIMESTEP=668 LAYER=  1 ZONE=  2 ACTIVE CELLS= 1192 NUMBER OF EQUATIONS=    1192
 SOLVING FOR ZETA FOR LAYER     2 ZONE     2

     613 UPPER PART EQS.       604 LOWER PART EQS.    BAND WIDTH + 1 =   32
 STRESS PERIOD=  1 TIMESTEP=668 LAYER=  2 ZONE=  2 ACTIVE CELLS= 1217 NUMBER OF EQUATIONS=    1217

 SOLVING FOR HEAD 

 NO OUTPUT CONTROL FOR STRESS PERIOD    1   TIME STEP  669
 SOLVING FOR ZETA FOR LAYER     1 ZONE     2

     593 UPPER PART EQS.       590 LOWER PART EQS.    BAND WIDTH + 1 =   25
 STRESS PERIOD=  1 TIMESTEP=669 LAYER=  1 ZONE=  2 ACTIVE CELLS= 1183 NUMBER OF EQUATIONS=    1183
 SOLVING FOR ZETA FOR LAYER     2 ZONE     2

     613 UPPER PART EQS.       604 LOWER PART EQS.    BAND WIDTH + 1 =   32
 STRESS PERIOD=  1 TIMESTEP=669 LAYER=  2 ZONE=  2 ACTIVE CELLS= 1217 NUMBER OF EQUATIONS=    1217

 SOLVING FOR HEAD 

 NO OUTPUT CONTROL FOR STRESS PERIOD    1   TIME STEP  670
 SOLVING FOR ZETA FOR LAYER     1 ZONE     2

     592 UPPER PART EQS.       587 LOWER PART EQS.    BAND WIDTH + 1 =   26
 STRESS PERIOD=  1 TIMESTEP=670 LAYER=  1 ZONE=  2 ACTIVE CELLS= 1179 NUMBER OF EQUATIONS=    1179
 SOLVING FOR ZETA FOR LAYER     2 ZONE     2

     613 UPPER PART EQS.       604 LOWER PART EQS.    BAND WIDTH + 1 =   32
 STRESS PERIOD=  1 TIMESTEP=670 LAYER=  2 ZONE=  2 ACTIVE CELLS= 1217 NUMBER OF EQUATIONS=    1217

 SOLVING FOR HEAD 

 NO OUTPUT CONTROL FOR STRESS PERIOD    1   TIME STEP  671
 SOLVING FOR ZETA FOR LAYER     1 ZONE     2

     602 UPPER PART EQS.       589 LOWER PART EQS.    BAND WIDTH + 1 =   33
 STRESS PERIOD=  1 TIMESTEP=671 LAYER=  1 ZONE=  2 ACTIVE CELLS= 1191 NUMBER OF EQUATIONS=    1191
 SOLVING FOR ZETA FOR LAYER     2 ZONE     2

     611 UPPER PART EQS.       604 LOWER PART EQS.    BAND WIDTH + 1 =   32
 STRESS PERIOD=  1 TIMESTEP=671 LAYER=  2 ZONE=  2 ACTIVE CELLS= 1215 NUMBER OF EQUATIONS=    1215

 SOLVING FOR HEAD 

 NO OUTPUT CONTROL FOR STRESS PERIOD    1   TIME STEP  672
 SOLVING FOR ZETA FOR LAYER     1 ZONE     2

     582 UPPER PART EQS.       594 LOWER PART EQS.    BAND WIDTH + 1 =   36
 STRESS PERIOD=  1 TIMESTEP=672 LAYER=  1 ZONE=  2 ACTIVE CELLS= 1176 NUMBER OF EQUATIONS=    1176
 SOLVING FOR ZETA FOR LAYER     2 ZONE     2

     613 UPPER PART EQS.       604 LOWER PART EQS.    BAND WIDTH + 1 =   32
 STRESS PERIOD=  1 TIMESTEP=672 LAYER=  2 ZONE=  2 ACTIVE CELLS= 1217 NUMBER OF EQUATIONS=    1217

 SOLVING FOR HEAD 

 NO OUTPUT CONTROL FOR STRESS PERIOD    1   TIME STEP  673
 SOLVING FOR ZETA FOR LAYER     1 ZONE     2

     601 UPPER PART EQS.       586 LOWER PART EQS.    BAND WIDTH + 1 =   37
 STRESS PERIOD=  1 TIMESTEP=673 LAYER=  1 ZONE=  2 ACTIVE CELLS= 1187 NUMBER OF EQUATIONS=    1187
 SOLVING FOR ZETA FOR LAYER     2 ZONE     2

     613 UPPER PART EQS.       604 LOWER PART EQS.    BAND WIDTH + 1 =   32
 STRESS PERIOD=  1 TIMESTEP=673 LAYER=  2 ZONE=  2 ACTIVE CELLS= 1217 NUMBER OF EQUATIONS=    1217

 SOLVING FOR HEAD 

 NO OUTPUT CONTROL FOR STRESS PERIOD    1   TIME STEP  674
 SOLVING FOR ZETA FOR LAYER     1 ZONE     2

     596 UPPER PART EQS.       594 LOWER PART EQS.    BAND WIDTH + 1 =   23
 STRESS PERIOD=  1 TIMESTEP=674 LAYER=  1 ZONE=  2 ACTIVE CELLS= 1190 NUMBER OF EQUATIONS=    1190
 SOLVING FOR ZETA FOR LAYER     2 ZONE     2

     613 UPPER PART EQS.       602 LOWER PART EQS.    BAND WIDTH + 1 =   33
 STRESS PERIOD=  1 TIMESTEP=674 LAYER=  2 ZONE=  2 ACTIVE CELLS= 1215 NUMBER OF EQUATIONS=    1215

 SOLVING FOR HEAD 

 NO OUTPUT CONTROL FOR STRESS PERIOD    1   TIME STEP  675
 SOLVING FOR ZETA FOR LAYER     1 ZONE     2

     594 UPPER PART EQS.       592 LOWER PART EQS.    BAND WIDTH + 1 =   23
 STRESS PERIOD=  1 TIMESTEP=675 LAYER=  1 ZONE=  2 ACTIVE CELLS= 1186 NUMBER OF EQUATIONS=    1186
 SOLVING FOR ZETA FOR LAYER     2 ZONE     2

     607 UPPER PART EQS.       604 LOWER PART EQS.    BAND WIDTH + 1 =   32
 STRESS PERIOD=  1 TIMESTEP=675 LAYER=  2 ZONE=  2 ACTIVE CELLS= 1211 NUMBER OF EQUATIONS=    1211

 SOLVING FOR HEAD 

 NO OUTPUT CONTROL FOR STRESS PERIOD    1   TIME STEP  676
 SOLVING FOR ZETA FOR LAYER     1 ZONE     2

     592 UPPER PART EQS.       590 LOWER PART EQS.    BAND WIDTH + 1 =   23
 STRESS PERIOD=  1 TIMESTEP=676 LAYER=  1 ZONE=  2 ACTIVE CELLS= 1182 NUMBER OF EQUATIONS=    1182
 SOLVING FOR ZETA FOR LAYER     2 ZONE     2

     611 UPPER PART EQS.       604 LOWER PART EQS.    BAND WIDTH + 1 =   32
 STRESS PERIOD=  1 TIMESTEP=676 LAYER=  2 ZONE=  2 ACTIVE CELLS= 1215 NUMBER OF EQUATIONS=    1215

 SOLVING FOR HEAD 

 NO OUTPUT CONTROL FOR STRESS PERIOD    1   TIME STEP  677
 SOLVING FOR ZETA FOR LAYER     1 ZONE     2

     597 UPPER PART EQS.       582 LOWER PART EQS.    BAND WIDTH + 1 =   35
 STRESS PERIOD=  1 TIMESTEP=677 LAYER=  1 ZONE=  2 ACTIVE CELLS= 1179 NUMBER OF EQUATIONS=    1179
 SOLVING FOR ZETA FOR LAYER     2 ZONE     2

     609 UPPER PART EQS.       604 LOWER PART EQS.    BAND WIDTH + 1 =   32
 STRESS PERIOD=  1 TIMESTEP=677 LAYER=  2 ZONE=  2 ACTIVE CELLS= 1213 NUMBER OF EQUATIONS=    1213

 SOLVING FOR HEAD 

 NO OUTPUT CONTROL FOR STRESS PERIOD    1   TIME STEP  678
 SOLVING FOR ZETA FOR LAYER     1 ZONE     2

     586 UPPER PART EQS.       597 LOWER PART EQS.    BAND WIDTH + 1 =   34
 STRESS PERIOD=  1 TIMESTEP=678 LAYER=  1 ZONE=  2 ACTIVE CELLS= 1183 NUMBER OF EQUATIONS=    1183
 SOLVING FOR ZETA FOR LAYER     2 ZONE     2

     613 UPPER PART EQS.       604 LOWER PART EQS.    BAND WIDTH + 1 =   32
 STRESS PERIOD=  1 TIMESTEP=678 LAYER=  2 ZONE=  2 ACTIVE CELLS= 1217 NUMBER OF EQUATIONS=    1217

 SOLVING FOR HEAD 

 NO OUTPUT CONTROL FOR STRESS PERIOD    1   TIME STEP  679
 SOLVING FOR ZETA FOR LAYER     1 ZONE     2

     604 UPPER PART EQS.       578 LOWER PART EQS.    BAND WIDTH + 1 =   47
 STRESS PERIOD=  1 TIMESTEP=679 LAYER=  1 ZONE=  2 ACTIVE CELLS= 1182 NUMBER OF EQUATIONS=    1182
 SOLVING FOR ZETA FOR LAYER     2 ZONE     2

     613 UPPER PART EQS.       604 LOWER PART EQS.    BAND WIDTH + 1 =   32
 STRESS PERIOD=  1 TIMESTEP=679 LAYER=  2 ZONE=  2 ACTIVE CELLS= 1217 NUMBER OF EQUATIONS=    1217

 SOLVING FOR HEAD 

 NO OUTPUT CONTROL FOR STRESS PERIOD    1   TIME STEP  680
 SOLVING FOR ZETA FOR LAYER     1 ZONE     2

     590 UPPER PART EQS.       602 LOWER PART EQS.    BAND WIDTH + 1 =   34
 STRESS PERIOD=  1 TIMESTEP=680 LAYER=  1 ZONE=  2 ACTIVE CELLS= 1192 NUMBER OF EQUATIONS=    1192
 SOLVING FOR ZETA FOR LAYER     2 ZONE     2

     613 UPPER PART EQS.       604 LOWER PART EQS.    BAND WIDTH + 1 =   32
 STRESS PERIOD=  1 TIMESTEP=680 LAYER=  2 ZONE=  2 ACTIVE CELLS= 1217 NUMBER OF EQUATIONS=    1217

 SOLVING FOR HEAD 

 NO OUTPUT CONTROL FOR STRESS PERIOD    1   TIME STEP  681
 SOLVING FOR ZETA FOR LAYER     1 ZONE     2

     595 UPPER PART EQS.       588 LOWER PART EQS.    BAND WIDTH + 1 =   29
 STRESS PERIOD=  1 TIMESTEP=681 LAYER=  1 ZONE=  2 ACTIVE CELLS= 1183 NUMBER OF EQUATIONS=    1183
 SOLVING FOR ZETA FOR LAYER     2 ZONE     2

     613 UPPER PART EQS.       602 LOWER PART EQS.    BAND WIDTH + 1 =   32
 STRESS PERIOD=  1 TIMESTEP=681 LAYER=  2 ZONE=  2 ACTIVE CELLS= 1215 NUMBER OF EQUATIONS=    1215

 SOLVING FOR HEAD 

 NO OUTPUT CONTROL FOR STRESS PERIOD    1   TIME STEP  682
 SOLVING FOR ZETA FOR LAYER     1 ZONE     2

     592 UPPER PART EQS.       588 LOWER PART EQS.    BAND WIDTH + 1 =   24
 STRESS PERIOD=  1 TIMESTEP=682 LAYER=  1 ZONE=  2 ACTIVE CELLS= 1180 NUMBER OF EQUATIONS=    1180
 SOLVING FOR ZETA FOR LAYER     2 ZONE     2

     613 UPPER PART EQS.       602 LOWER PART EQS.    BAND WIDTH + 1 =   32
 STRESS PERIOD=  1 TIMESTEP=682 LAYER=  2 ZONE=  2 ACTIVE CELLS= 1215 NUMBER OF EQUATIONS=    1215

 SOLVING FOR HEAD 

 NO OUTPUT CONTROL FOR STRESS PERIOD    1   TIME STEP  683
 SOLVING FOR ZETA FOR LAYER     1 ZONE     2

     608 UPPER PART EQS.       583 LOWER PART EQS.    BAND WIDTH + 1 =   43
 STRESS PERIOD=  1 TIMESTEP=683 LAYER=  1 ZONE=  2 ACTIVE CELLS= 1191 NUMBER OF EQUATIONS=    1191
 SOLVING FOR ZETA FOR LAYER     2 ZONE     2

     613 UPPER PART EQS.       604 LOWER PART EQS.    BAND WIDTH + 1 =   32
 STRESS PERIOD=  1 TIMESTEP=683 LAYER=  2 ZONE=  2 ACTIVE CELLS= 1217 NUMBER OF EQUATIONS=    1217

 SOLVING FOR HEAD 

 NO OUTPUT CONTROL FOR STRESS PERIOD    1   TIME STEP  684
 SOLVING FOR ZETA FOR LAYER     1 ZONE     2

     582 UPPER PART EQS.       588 LOWER PART EQS.    BAND WIDTH + 1 =   29
 STRESS PERIOD=  1 TIMESTEP=684 LAYER=  1 ZONE=  2 ACTIVE CELLS= 1170 NUMBER OF EQUATIONS=    1170
 SOLVING FOR ZETA FOR LAYER     2 ZONE     2

     611 UPPER PART EQS.       604 LOWER PART EQS.    BAND WIDTH + 1 =   32
 STRESS PERIOD=  1 TIMESTEP=684 LAYER=  2 ZONE=  2 ACTIVE CELLS= 1215 NUMBER OF EQUATIONS=    1215

 SOLVING FOR HEAD 

 NO OUTPUT CONTROL FOR STRESS PERIOD    1   TIME STEP  685
 SOLVING FOR ZETA FOR LAYER     1 ZONE     2

     599 UPPER PART EQS.       584 LOWER PART EQS.    BAND WIDTH + 1 =   37
 STRESS PERIOD=  1 TIMESTEP=685 LAYER=  1 ZONE=  2 ACTIVE CELLS= 1183 NUMBER OF EQUATIONS=    1183
 SOLVING FOR ZETA FOR LAYER     2 ZONE     2

     613 UPPER PART EQS.       604 LOWER PART EQS.    BAND WIDTH + 1 =   32
 STRESS PERIOD=  1 TIMESTEP=685 LAYER=  2 ZONE=  2 ACTIVE CELLS= 1217 NUMBER OF EQUATIONS=    1217

 SOLVING FOR HEAD 

 NO OUTPUT CONTROL FOR STRESS PERIOD    1   TIME STEP  686
 SOLVING FOR ZETA FOR LAYER     1 ZONE     2

     594 UPPER PART EQS.       594 LOWER PART EQS.    BAND WIDTH + 1 =   22
 STRESS PERIOD=  1 TIMESTEP=686 LAYER=  1 ZONE=  2 ACTIVE CELLS= 1188 NUMBER OF EQUATIONS=    1188
 SOLVING FOR ZETA FOR LAYER     2 ZONE     2

     613 UPPER PART EQS.       603 LOWER PART EQS.    BAND WIDTH + 1 =   33
 STRESS PERIOD=  1 TIMESTEP=686 LAYER=  2 ZONE=  2 ACTIVE CELLS= 1216 NUMBER OF EQUATIONS=    1216

 SOLVING FOR HEAD 

 NO OUTPUT CONTROL FOR STRESS PERIOD    1   TIME STEP  687
 SOLVING FOR ZETA FOR LAYER     1 ZONE     2

     594 UPPER PART EQS.       588 LOWER PART EQS.    BAND WIDTH + 1 =   27
 STRESS PERIOD=  1 TIMESTEP=687 LAYER=  1 ZONE=  2 ACTIVE CELLS= 1182 NUMBER OF EQUATIONS=    1182
 SOLVING FOR ZETA FOR LAYER     2 ZONE     2

     613 UPPER PART EQS.       607 LOWER PART EQS.    BAND WIDTH + 1 =   32
 STRESS PERIOD=  1 TIMESTEP=687 LAYER=  2 ZONE=  2 ACTIVE CELLS= 1220 NUMBER OF EQUATIONS=    1220

 SOLVING FOR HEAD 

 NO OUTPUT CONTROL FOR STRESS PERIOD    1   TIME STEP  688
 SOLVING FOR ZETA FOR LAYER     1 ZONE     2

     592 UPPER PART EQS.       587 LOWER PART EQS.    BAND WIDTH + 1 =   25
 STRESS PERIOD=  1 TIMESTEP=688 LAYER=  1 ZONE=  2 ACTIVE CELLS= 1179 NUMBER OF EQUATIONS=    1179
 SOLVING FOR ZETA FOR LAYER     2 ZONE     2

     613 UPPER PART EQS.       608 LOWER PART EQS.    BAND WIDTH + 1 =   32
 STRESS PERIOD=  1 TIMESTEP=688 LAYER=  2 ZONE=  2 ACTIVE CELLS= 1221 NUMBER OF EQUATIONS=    1221

 SOLVING FOR HEAD 

 NO OUTPUT CONTROL FOR STRESS PERIOD    1   TIME STEP  689
 SOLVING FOR ZETA FOR LAYER     1 ZONE     2

     603 UPPER PART EQS.       579 LOWER PART EQS.    BAND WIDTH + 1 =   46
 STRESS PERIOD=  1 TIMESTEP=689 LAYER=  1 ZONE=  2 ACTIVE CELLS= 1182 NUMBER OF EQUATIONS=    1182
 SOLVING FOR ZETA FOR LAYER     2 ZONE     2

     609 UPPER PART EQS.       610 LOWER PART EQS.    BAND WIDTH + 1 =   33
 STRESS PERIOD=  1 TIMESTEP=689 LAYER=  2 ZONE=  2 ACTIVE CELLS= 1219 NUMBER OF EQUATIONS=    1219

 SOLVING FOR HEAD 

 NO OUTPUT CONTROL FOR STRESS PERIOD    1   TIME STEP  690
 SOLVING FOR ZETA FOR LAYER     1 ZONE     2

     588 UPPER PART EQS.       597 LOWER PART EQS.    BAND WIDTH + 1 =   33
 STRESS PERIOD=  1 TIMESTEP=690 LAYER=  1 ZONE=  2 ACTIVE CELLS= 1185 NUMBER OF EQUATIONS=    1185
 SOLVING FOR ZETA FOR LAYER     2 ZONE     2

     611 UPPER PART EQS.       612 LOWER PART EQS.    BAND WIDTH + 1 =   34
 STRESS PERIOD=  1 TIMESTEP=690 LAYER=  2 ZONE=  2 ACTIVE CELLS= 1223 NUMBER OF EQUATIONS=    1223

 SOLVING FOR HEAD 

 NO OUTPUT CONTROL FOR STRESS PERIOD    1   TIME STEP  691
 SOLVING FOR ZETA FOR LAYER     1 ZONE     2

     606 UPPER PART EQS.       578 LOWER PART EQS.    BAND WIDTH + 1 =   49
 STRESS PERIOD=  1 TIMESTEP=691 LAYER=  1 ZONE=  2 ACTIVE CELLS= 1184 NUMBER OF EQUATIONS=    1184
 SOLVING FOR ZETA FOR LAYER     2 ZONE     2

     613 UPPER PART EQS.       612 LOWER PART EQS.    BAND WIDTH + 1 =   34
 STRESS PERIOD=  1 TIMESTEP=691 LAYER=  2 ZONE=  2 ACTIVE CELLS= 1225 NUMBER OF EQUATIONS=    1225

 SOLVING FOR HEAD 

 NO OUTPUT CONTROL FOR STRESS PERIOD    1   TIME STEP  692
 SOLVING FOR ZETA FOR LAYER     1 ZONE     2

     596 UPPER PART EQS.       600 LOWER PART EQS.    BAND WIDTH + 1 =   28
 STRESS PERIOD=  1 TIMESTEP=692 LAYER=  1 ZONE=  2 ACTIVE CELLS= 1196 NUMBER OF EQUATIONS=    1196
 SOLVING FOR ZETA FOR LAYER     2 ZONE     2

     611 UPPER PART EQS.       612 LOWER PART EQS.    BAND WIDTH + 1 =   34
 STRESS PERIOD=  1 TIMESTEP=692 LAYER=  2 ZONE=  2 ACTIVE CELLS= 1223 NUMBER OF EQUATIONS=    1223

 SOLVING FOR HEAD 

 NO OUTPUT CONTROL FOR STRESS PERIOD    1   TIME STEP  693
 SOLVING FOR ZETA FOR LAYER     1 ZONE     2

     587 UPPER PART EQS.       590 LOWER PART EQS.    BAND WIDTH + 1 =   25
 STRESS PERIOD=  1 TIMESTEP=693 LAYER=  1 ZONE=  2 ACTIVE CELLS= 1177 NUMBER OF EQUATIONS=    1177
 SOLVING FOR ZETA FOR LAYER     2 ZONE     2

     611 UPPER PART EQS.       612 LOWER PART EQS.    BAND WIDTH + 1 =   34
 STRESS PERIOD=  1 TIMESTEP=693 LAYER=  2 ZONE=  2 ACTIVE CELLS= 1223 NUMBER OF EQUATIONS=    1223

 SOLVING FOR HEAD 

 NO OUTPUT CONTROL FOR STRESS PERIOD    1   TIME STEP  694
 SOLVING FOR ZETA FOR LAYER     1 ZONE     2

     594 UPPER PART EQS.       595 LOWER PART EQS.    BAND WIDTH + 1 =   26
 STRESS PERIOD=  1 TIMESTEP=694 LAYER=  1 ZONE=  2 ACTIVE CELLS= 1189 NUMBER OF EQUATIONS=    1189
 SOLVING FOR ZETA FOR LAYER     2 ZONE     2

     613 UPPER PART EQS.       612 LOWER PART EQS.    BAND WIDTH + 1 =   34
 STRESS PERIOD=  1 TIMESTEP=694 LAYER=  2 ZONE=  2 ACTIVE CELLS= 1225 NUMBER OF EQUATIONS=    1225

 SOLVING FOR HEAD 

 NO OUTPUT CONTROL FOR STRESS PERIOD    1   TIME STEP  695
 SOLVING FOR ZETA FOR LAYER     1 ZONE     2

     608 UPPER PART EQS.       577 LOWER PART EQS.    BAND WIDTH + 1 =   52
 STRESS PERIOD=  1 TIMESTEP=695 LAYER=  1 ZONE=  2 ACTIVE CELLS= 1185 NUMBER OF EQUATIONS=    1185
 SOLVING FOR ZETA FOR LAYER     2 ZONE     2

     613 UPPER PART EQS.       612 LOWER PART EQS.    BAND WIDTH + 1 =   34
 STRESS PERIOD=  1 TIMESTEP=695 LAYER=  2 ZONE=  2 ACTIVE CELLS= 1225 NUMBER OF EQUATIONS=    1225

 SOLVING FOR HEAD 

 NO OUTPUT CONTROL FOR STRESS PERIOD    1   TIME STEP  696
 SOLVING FOR ZETA FOR LAYER     1 ZONE     2

     584 UPPER PART EQS.       592 LOWER PART EQS.    BAND WIDTH + 1 =   33
 STRESS PERIOD=  1 TIMESTEP=696 LAYER=  1 ZONE=  2 ACTIVE CELLS= 1176 NUMBER OF EQUATIONS=    1176
 SOLVING FOR ZETA FOR LAYER     2 ZONE     2

     613 UPPER PART EQS.       612 LOWER PART EQS.    BAND WIDTH + 1 =   34
 STRESS PERIOD=  1 TIMESTEP=696 LAYER=  2 ZONE=  2 ACTIVE CELLS= 1225 NUMBER OF EQUATIONS=    1225

 SOLVING FOR HEAD 

 NO OUTPUT CONTROL FOR STRESS PERIOD    1   TIME STEP  697
 SOLVING FOR ZETA FOR LAYER     1 ZONE     2

     604 UPPER PART EQS.       580 LOWER PART EQS.    BAND WIDTH + 1 =   46
 STRESS PERIOD=  1 TIMESTEP=697 LAYER=  1 ZONE=  2 ACTIVE CELLS= 1184 NUMBER OF EQUATIONS=    1184
 SOLVING FOR ZETA FOR LAYER     2 ZONE     2

     613 UPPER PART EQS.       612 LOWER PART EQS.    BAND WIDTH + 1 =   34
 STRESS PERIOD=  1 TIMESTEP=697 LAYER=  2 ZONE=  2 ACTIVE CELLS= 1225 NUMBER OF EQUATIONS=    1225

 SOLVING FOR HEAD 

 NO OUTPUT CONTROL FOR STRESS PERIOD    1   TIME STEP  698
 SOLVING FOR ZETA FOR LAYER     1 ZONE     2

     601 UPPER PART EQS.       588 LOWER PART EQS.    BAND WIDTH + 1 =   35
 STRESS PERIOD=  1 TIMESTEP=698 LAYER=  1 ZONE=  2 ACTIVE CELLS= 1189 NUMBER OF EQUATIONS=    1189
 SOLVING FOR ZETA FOR LAYER     2 ZONE     2

     609 UPPER PART EQS.       612 LOWER PART EQS.    BAND WIDTH + 1 =   34
 STRESS PERIOD=  1 TIMESTEP=698 LAYER=  2 ZONE=  2 ACTIVE CELLS= 1221 NUMBER OF EQUATIONS=    1221

 SOLVING FOR HEAD 

 NO OUTPUT CONTROL FOR STRESS PERIOD    1   TIME STEP  699
 SOLVING FOR ZETA FOR LAYER     1 ZONE     2

     598 UPPER PART EQS.       580 LOWER PART EQS.    BAND WIDTH + 1 =   38
 STRESS PERIOD=  1 TIMESTEP=699 LAYER=  1 ZONE=  2 ACTIVE CELLS= 1178 NUMBER OF EQUATIONS=    1178
 SOLVING FOR ZETA FOR LAYER     2 ZONE     2

     613 UPPER PART EQS.       612 LOWER PART EQS.    BAND WIDTH + 1 =   34
 STRESS PERIOD=  1 TIMESTEP=699 LAYER=  2 ZONE=  2 ACTIVE CELLS= 1225 NUMBER OF EQUATIONS=    1225

 SOLVING FOR HEAD 

 NO OUTPUT CONTROL FOR STRESS PERIOD    1   TIME STEP  700
 SOLVING FOR ZETA FOR LAYER     1 ZONE     2

     594 UPPER PART EQS.       584 LOWER PART EQS.    BAND WIDTH + 1 =   28
 STRESS PERIOD=  1 TIMESTEP=700 LAYER=  1 ZONE=  2 ACTIVE CELLS= 1178 NUMBER OF EQUATIONS=    1178
 SOLVING FOR ZETA FOR LAYER     2 ZONE     2

     613 UPPER PART EQS.       612 LOWER PART EQS.    BAND WIDTH + 1 =   34
 STRESS PERIOD=  1 TIMESTEP=700 LAYER=  2 ZONE=  2 ACTIVE CELLS= 1225 NUMBER OF EQUATIONS=    1225

 SOLVING FOR HEAD 

 NO OUTPUT CONTROL FOR STRESS PERIOD    1   TIME STEP  701
 SOLVING FOR ZETA FOR LAYER     1 ZONE     2

     602 UPPER PART EQS.       583 LOWER PART EQS.    BAND WIDTH + 1 =   40
 STRESS PERIOD=  1 TIMESTEP=701 LAYER=  1 ZONE=  2 ACTIVE CELLS= 1185 NUMBER OF EQUATIONS=    1185
 SOLVING FOR ZETA FOR LAYER     2 ZONE     2

     613 UPPER PART EQS.       612 LOWER PART EQS.    BAND WIDTH + 1 =   34
 STRESS PERIOD=  1 TIMESTEP=701 LAYER=  2 ZONE=  2 ACTIVE CELLS= 1225 NUMBER OF EQUATIONS=    1225

 SOLVING FOR HEAD 

 NO OUTPUT CONTROL FOR STRESS PERIOD    1   TIME STEP  702
 SOLVING FOR ZETA FOR LAYER     1 ZONE     2

     579 UPPER PART EQS.       592 LOWER PART EQS.    BAND WIDTH + 1 =   35
 STRESS PERIOD=  1 TIMESTEP=702 LAYER=  1 ZONE=  2 ACTIVE CELLS= 1171 NUMBER OF EQUATIONS=    1171
 SOLVING FOR ZETA FOR LAYER     2 ZONE     2

     613 UPPER PART EQS.       612 LOWER PART EQS.    BAND WIDTH + 1 =   34
 STRESS PERIOD=  1 TIMESTEP=702 LAYER=  2 ZONE=  2 ACTIVE CELLS= 1225 NUMBER OF EQUATIONS=    1225

 SOLVING FOR HEAD 

 NO OUTPUT CONTROL FOR STRESS PERIOD    1   TIME STEP  703
 SOLVING FOR ZETA FOR LAYER     1 ZONE     2

     604 UPPER PART EQS.       590 LOWER PART EQS.    BAND WIDTH + 1 =   36
 STRESS PERIOD=  1 TIMESTEP=703 LAYER=  1 ZONE=  2 ACTIVE CELLS= 1194 NUMBER OF EQUATIONS=    1194
 SOLVING FOR ZETA FOR LAYER     2 ZONE     2

     613 UPPER PART EQS.       612 LOWER PART EQS.    BAND WIDTH + 1 =   34
 STRESS PERIOD=  1 TIMESTEP=703 LAYER=  2 ZONE=  2 ACTIVE CELLS= 1225 NUMBER OF EQUATIONS=    1225

 SOLVING FOR HEAD 

 NO OUTPUT CONTROL FOR STRESS PERIOD    1   TIME STEP  704
 SOLVING FOR ZETA FOR LAYER     1 ZONE     2

     598 UPPER PART EQS.       602 LOWER PART EQS.    BAND WIDTH + 1 =   27
 STRESS PERIOD=  1 TIMESTEP=704 LAYER=  1 ZONE=  2 ACTIVE CELLS= 1200 NUMBER OF EQUATIONS=    1200
 SOLVING FOR ZETA FOR LAYER     2 ZONE     2

     613 UPPER PART EQS.       612 LOWER PART EQS.    BAND WIDTH + 1 =   34
 STRESS PERIOD=  1 TIMESTEP=704 LAYER=  2 ZONE=  2 ACTIVE CELLS= 1225 NUMBER OF EQUATIONS=    1225

 SOLVING FOR HEAD 

 NO OUTPUT CONTROL FOR STRESS PERIOD    1   TIME STEP  705
 SOLVING FOR ZETA FOR LAYER     1 ZONE     2

     592 UPPER PART EQS.       596 LOWER PART EQS.    BAND WIDTH + 1 =   25
 STRESS PERIOD=  1 TIMESTEP=705 LAYER=  1 ZONE=  2 ACTIVE CELLS= 1188 NUMBER OF EQUATIONS=    1188
 SOLVING FOR ZETA FOR LAYER     2 ZONE     2

     613 UPPER PART EQS.       612 LOWER PART EQS.    BAND WIDTH + 1 =   34
 STRESS PERIOD=  1 TIMESTEP=705 LAYER=  2 ZONE=  2 ACTIVE CELLS= 1225 NUMBER OF EQUATIONS=    1225

 SOLVING FOR HEAD 

 NO OUTPUT CONTROL FOR STRESS PERIOD    1   TIME STEP  706
 SOLVING FOR ZETA FOR LAYER     1 ZONE     2

     590 UPPER PART EQS.       598 LOWER PART EQS.    BAND WIDTH + 1 =   28
 STRESS PERIOD=  1 TIMESTEP=706 LAYER=  1 ZONE=  2 ACTIVE CELLS= 1188 NUMBER OF EQUATIONS=    1188
 SOLVING FOR ZETA FOR LAYER     2 ZONE     2

     609 UPPER PART EQS.       612 LOWER PART EQS.    BAND WIDTH + 1 =   34
 STRESS PERIOD=  1 TIMESTEP=706 LAYER=  2 ZONE=  2 ACTIVE CELLS= 1221 NUMBER OF EQUATIONS=    1221

 SOLVING FOR HEAD 

 NO OUTPUT CONTROL FOR STRESS PERIOD    1   TIME STEP  707
 SOLVING FOR ZETA FOR LAYER     1 ZONE     2

     597 UPPER PART EQS.       585 LOWER PART EQS.    BAND WIDTH + 1 =   32
 STRESS PERIOD=  1 TIMESTEP=707 LAYER=  1 ZONE=  2 ACTIVE CELLS= 1182 NUMBER OF EQUATIONS=    1182
 SOLVING FOR ZETA FOR LAYER     2 ZONE     2

     613 UPPER PART EQS.       612 LOWER PART EQS.    BAND WIDTH + 1 =   34
 STRESS PERIOD=  1 TIMESTEP=707 LAYER=  2 ZONE=  2 ACTIVE CELLS= 1225 NUMBER OF EQUATIONS=    1225

 SOLVING FOR HEAD 

 NO OUTPUT CONTROL FOR STRESS PERIOD    1   TIME STEP  708
 SOLVING FOR ZETA FOR LAYER     1 ZONE     2

     586 UPPER PART EQS.       592 LOWER PART EQS.    BAND WIDTH + 1 =   31
 STRESS PERIOD=  1 TIMESTEP=708 LAYER=  1 ZONE=  2 ACTIVE CELLS= 1178 NUMBER OF EQUATIONS=    1178
 SOLVING FOR ZETA FOR LAYER     2 ZONE     2

     613 UPPER PART EQS.       612 LOWER PART EQS.    BAND WIDTH + 1 =   34
 STRESS PERIOD=  1 TIMESTEP=708 LAYER=  2 ZONE=  2 ACTIVE CELLS= 1225 NUMBER OF EQUATIONS=    1225

 SOLVING FOR HEAD 

 NO OUTPUT CONTROL FOR STRESS PERIOD    1   TIME STEP  709
 SOLVING FOR ZETA FOR LAYER     1 ZONE     2

     598 UPPER PART EQS.       580 LOWER PART EQS.    BAND WIDTH + 1 =   39
 STRESS PERIOD=  1 TIMESTEP=709 LAYER=  1 ZONE=  2 ACTIVE CELLS= 1178 NUMBER OF EQUATIONS=    1178
 SOLVING FOR ZETA FOR LAYER     2 ZONE     2

     611 UPPER PART EQS.       612 LOWER PART EQS.    BAND WIDTH + 1 =   34
 STRESS PERIOD=  1 TIMESTEP=709 LAYER=  2 ZONE=  2 ACTIVE CELLS= 1223 NUMBER OF EQUATIONS=    1223

 SOLVING FOR HEAD 

 NO OUTPUT CONTROL FOR STRESS PERIOD    1   TIME STEP  710
 SOLVING FOR ZETA FOR LAYER     1 ZONE     2

     606 UPPER PART EQS.       588 LOWER PART EQS.    BAND WIDTH + 1 =   38
 STRESS PERIOD=  1 TIMESTEP=710 LAYER=  1 ZONE=  2 ACTIVE CELLS= 1194 NUMBER OF EQUATIONS=    1194
 SOLVING FOR ZETA FOR LAYER     2 ZONE     2

     613 UPPER PART EQS.       612 LOWER PART EQS.    BAND WIDTH + 1 =   34
 STRESS PERIOD=  1 TIMESTEP=710 LAYER=  2 ZONE=  2 ACTIVE CELLS= 1225 NUMBER OF EQUATIONS=    1225

 SOLVING FOR HEAD 

 NO OUTPUT CONTROL FOR STRESS PERIOD    1   TIME STEP  711
 SOLVING FOR ZETA FOR LAYER     1 ZONE     2

     591 UPPER PART EQS.       580 LOWER PART EQS.    BAND WIDTH + 1 =   33
 STRESS PERIOD=  1 TIMESTEP=711 LAYER=  1 ZONE=  2 ACTIVE CELLS= 1171 NUMBER OF EQUATIONS=    1171
 SOLVING FOR ZETA FOR LAYER     2 ZONE     2

     613 UPPER PART EQS.       612 LOWER PART EQS.    BAND WIDTH + 1 =   34
 STRESS PERIOD=  1 TIMESTEP=711 LAYER=  2 ZONE=  2 ACTIVE CELLS= 1225 NUMBER OF EQUATIONS=    1225

 SOLVING FOR HEAD 

 NO OUTPUT CONTROL FOR STRESS PERIOD    1   TIME STEP  712
 SOLVING FOR ZETA FOR LAYER     1 ZONE     2

     592 UPPER PART EQS.       592 LOWER PART EQS.    BAND WIDTH + 1 =   23
 STRESS PERIOD=  1 TIMESTEP=712 LAYER=  1 ZONE=  2 ACTIVE CELLS= 1184 NUMBER OF EQUATIONS=    1184
 SOLVING FOR ZETA FOR LAYER     2 ZONE     2

     613 UPPER PART EQS.       612 LOWER PART EQS.    BAND WIDTH + 1 =   34
 STRESS PERIOD=  1 TIMESTEP=712 LAYER=  2 ZONE=  2 ACTIVE CELLS= 1225 NUMBER OF EQUATIONS=    1225

 SOLVING FOR HEAD 

 NO OUTPUT CONTROL FOR STRESS PERIOD    1   TIME STEP  713
 SOLVING FOR ZETA FOR LAYER     1 ZONE     2

     596 UPPER PART EQS.       597 LOWER PART EQS.    BAND WIDTH + 1 =   26
 STRESS PERIOD=  1 TIMESTEP=713 LAYER=  1 ZONE=  2 ACTIVE CELLS= 1193 NUMBER OF EQUATIONS=    1193
 SOLVING FOR ZETA FOR LAYER     2 ZONE     2

     611 UPPER PART EQS.       612 LOWER PART EQS.    BAND WIDTH + 1 =   34
 STRESS PERIOD=  1 TIMESTEP=713 LAYER=  2 ZONE=  2 ACTIVE CELLS= 1223 NUMBER OF EQUATIONS=    1223

 SOLVING FOR HEAD 

 NO OUTPUT CONTROL FOR STRESS PERIOD    1   TIME STEP  714
 SOLVING FOR ZETA FOR LAYER     1 ZONE     2

     586 UPPER PART EQS.       601 LOWER PART EQS.    BAND WIDTH + 1 =   38
 STRESS PERIOD=  1 TIMESTEP=714 LAYER=  1 ZONE=  2 ACTIVE CELLS= 1187 NUMBER OF EQUATIONS=    1187
 SOLVING FOR ZETA FOR LAYER     2 ZONE     2

     613 UPPER PART EQS.       612 LOWER PART EQS.    BAND WIDTH + 1 =   34
 STRESS PERIOD=  1 TIMESTEP=714 LAYER=  2 ZONE=  2 ACTIVE CELLS= 1225 NUMBER OF EQUATIONS=    1225

 SOLVING FOR HEAD 

 NO OUTPUT CONTROL FOR STRESS PERIOD    1   TIME STEP  715
 SOLVING FOR ZETA FOR LAYER     1 ZONE     2

     594 UPPER PART EQS.       576 LOWER PART EQS.    BAND WIDTH + 1 =   39
 STRESS PERIOD=  1 TIMESTEP=715 LAYER=  1 ZONE=  2 ACTIVE CELLS= 1170 NUMBER OF EQUATIONS=    1170
 SOLVING FOR ZETA FOR LAYER     2 ZONE     2

     611 UPPER PART EQS.       612 LOWER PART EQS.    BAND WIDTH + 1 =   34
 STRESS PERIOD=  1 TIMESTEP=715 LAYER=  2 ZONE=  2 ACTIVE CELLS= 1223 NUMBER OF EQUATIONS=    1223

 SOLVING FOR HEAD 

 NO OUTPUT CONTROL FOR STRESS PERIOD    1   TIME STEP  716
 SOLVING FOR ZETA FOR LAYER     1 ZONE     2

     592 UPPER PART EQS.       596 LOWER PART EQS.    BAND WIDTH + 1 =   26
 STRESS PERIOD=  1 TIMESTEP=716 LAYER=  1 ZONE=  2 ACTIVE CELLS= 1188 NUMBER OF EQUATIONS=    1188
 SOLVING FOR ZETA FOR LAYER     2 ZONE     2

     613 UPPER PART EQS.       612 LOWER PART EQS.    BAND WIDTH + 1 =   34
 STRESS PERIOD=  1 TIMESTEP=716 LAYER=  2 ZONE=  2 ACTIVE CELLS= 1225 NUMBER OF EQUATIONS=    1225

 SOLVING FOR HEAD 

 NO OUTPUT CONTROL FOR STRESS PERIOD    1   TIME STEP  717
 SOLVING FOR ZETA FOR LAYER     1 ZONE     2

     595 UPPER PART EQS.       582 LOWER PART EQS.    BAND WIDTH + 1 =   37
 STRESS PERIOD=  1 TIMESTEP=717 LAYER=  1 ZONE=  2 ACTIVE CELLS= 1177 NUMBER OF EQUATIONS=    1177
 SOLVING FOR ZETA FOR LAYER     2 ZONE     2

     613 UPPER PART EQS.       612 LOWER PART EQS.    BAND WIDTH + 1 =   34
 STRESS PERIOD=  1 TIMESTEP=717 LAYER=  2 ZONE=  2 ACTIVE CELLS= 1225 NUMBER OF EQUATIONS=    1225

 SOLVING FOR HEAD 

 NO OUTPUT CONTROL FOR STRESS PERIOD    1   TIME STEP  718
 SOLVING FOR ZETA FOR LAYER     1 ZONE     2

     600 UPPER PART EQS.       594 LOWER PART EQS.    BAND WIDTH + 1 =   29
 STRESS PERIOD=  1 TIMESTEP=718 LAYER=  1 ZONE=  2 ACTIVE CELLS= 1194 NUMBER OF EQUATIONS=    1194
 SOLVING FOR ZETA FOR LAYER     2 ZONE     2

     613 UPPER PART EQS.       612 LOWER PART EQS.    BAND WIDTH + 1 =   34
 STRESS PERIOD=  1 TIMESTEP=718 LAYER=  2 ZONE=  2 ACTIVE CELLS= 1225 NUMBER OF EQUATIONS=    1225

 SOLVING FOR HEAD 

 NO OUTPUT CONTROL FOR STRESS PERIOD    1   TIME STEP  719
 SOLVING FOR ZETA FOR LAYER     1 ZONE     2

     610 UPPER PART EQS.       594 LOWER PART EQS.    BAND WIDTH + 1 =   39
 STRESS PERIOD=  1 TIMESTEP=719 LAYER=  1 ZONE=  2 ACTIVE CELLS= 1204 NUMBER OF EQUATIONS=    1204
 SOLVING FOR ZETA FOR LAYER     2 ZONE     2

     613 UPPER PART EQS.       612 LOWER PART EQS.    BAND WIDTH + 1 =   34
 STRESS PERIOD=  1 TIMESTEP=719 LAYER=  2 ZONE=  2 ACTIVE CELLS= 1225 NUMBER OF EQUATIONS=    1225

 SOLVING FOR HEAD 

 NO OUTPUT CONTROL FOR STRESS PERIOD    1   TIME STEP  720
 SOLVING FOR ZETA FOR LAYER     1 ZONE     2

     592 UPPER PART EQS.       592 LOWER PART EQS.    BAND WIDTH + 1 =   24
 STRESS PERIOD=  1 TIMESTEP=720 LAYER=  1 ZONE=  2 ACTIVE CELLS= 1184 NUMBER OF EQUATIONS=    1184
 SOLVING FOR ZETA FOR LAYER     2 ZONE     2

     613 UPPER PART EQS.       612 LOWER PART EQS.    BAND WIDTH + 1 =   34
 STRESS PERIOD=  1 TIMESTEP=720 LAYER=  2 ZONE=  2 ACTIVE CELLS= 1225 NUMBER OF EQUATIONS=    1225

 SOLVING FOR HEAD 

 NO OUTPUT CONTROL FOR STRESS PERIOD    1   TIME STEP  721
 SOLVING FOR ZETA FOR LAYER     1 ZONE     2

     603 UPPER PART EQS.       579 LOWER PART EQS.    BAND WIDTH + 1 =   42
 STRESS PERIOD=  1 TIMESTEP=721 LAYER=  1 ZONE=  2 ACTIVE CELLS= 1182 NUMBER OF EQUATIONS=    1182
 SOLVING FOR ZETA FOR LAYER     2 ZONE     2

     613 UPPER PART EQS.       612 LOWER PART EQS.    BAND WIDTH + 1 =   34
 STRESS PERIOD=  1 TIMESTEP=721 LAYER=  2 ZONE=  2 ACTIVE CELLS= 1225 NUMBER OF EQUATIONS=    1225

 SOLVING FOR HEAD 

 NO OUTPUT CONTROL FOR STRESS PERIOD    1   TIME STEP  722
 SOLVING FOR ZETA FOR LAYER     1 ZONE     2

     596 UPPER PART EQS.       602 LOWER PART EQS.    BAND WIDTH + 1 =   33
 STRESS PERIOD=  1 TIMESTEP=722 LAYER=  1 ZONE=  2 ACTIVE CELLS= 1198 NUMBER OF EQUATIONS=    1198
 SOLVING FOR ZETA FOR LAYER     2 ZONE     2

     613 UPPER PART EQS.       612 LOWER PART EQS.    BAND WIDTH + 1 =   34
 STRESS PERIOD=  1 TIMESTEP=722 LAYER=  2 ZONE=  2 ACTIVE CELLS= 1225 NUMBER OF EQUATIONS=    1225

 SOLVING FOR HEAD 

 NO OUTPUT CONTROL FOR STRESS PERIOD    1   TIME STEP  723
 SOLVING FOR ZETA FOR LAYER     1 ZONE     2

     600 UPPER PART EQS.       578 LOWER PART EQS.    BAND WIDTH + 1 =   41
 STRESS PERIOD=  1 TIMESTEP=723 LAYER=  1 ZONE=  2 ACTIVE CELLS= 1178 NUMBER OF EQUATIONS=    1178
 SOLVING FOR ZETA FOR LAYER     2 ZONE     2

     613 UPPER PART EQS.       612 LOWER PART EQS.    BAND WIDTH + 1 =   34
 STRESS PERIOD=  1 TIMESTEP=723 LAYER=  2 ZONE=  2 ACTIVE CELLS= 1225 NUMBER OF EQUATIONS=    1225

 SOLVING FOR HEAD 

 NO OUTPUT CONTROL FOR STRESS PERIOD    1   TIME STEP  724
 SOLVING FOR ZETA FOR LAYER     1 ZONE     2

     604 UPPER PART EQS.       586 LOWER PART EQS.    BAND WIDTH + 1 =   39
 STRESS PERIOD=  1 TIMESTEP=724 LAYER=  1 ZONE=  2 ACTIVE CELLS= 1190 NUMBER OF EQUATIONS=    1190
 SOLVING FOR ZETA FOR LAYER     2 ZONE     2

     613 UPPER PART EQS.       612 LOWER PART EQS.    BAND WIDTH + 1 =   34
 STRESS PERIOD=  1 TIMESTEP=724 LAYER=  2 ZONE=  2 ACTIVE CELLS= 1225 NUMBER OF EQUATIONS=    1225

 SOLVING FOR HEAD 

 NO OUTPUT CONTROL FOR STRESS PERIOD    1   TIME STEP  725
 SOLVING FOR ZETA FOR LAYER     1 ZONE     2

     602 UPPER PART EQS.       586 LOWER PART EQS.    BAND WIDTH + 1 =   37
 STRESS PERIOD=  1 TIMESTEP=725 LAYER=  1 ZONE=  2 ACTIVE CELLS= 1188 NUMBER OF EQUATIONS=    1188
 SOLVING FOR ZETA FOR LAYER     2 ZONE     2

     613 UPPER PART EQS.       612 LOWER PART EQS.    BAND WIDTH + 1 =   34
 STRESS PERIOD=  1 TIMESTEP=725 LAYER=  2 ZONE=  2 ACTIVE CELLS= 1225 NUMBER OF EQUATIONS=    1225

 SOLVING FOR HEAD 

 NO OUTPUT CONTROL FOR STRESS PERIOD    1   TIME STEP  726
 SOLVING FOR ZETA FOR LAYER     1 ZONE     2

     590 UPPER PART EQS.       588 LOWER PART EQS.    BAND WIDTH + 1 =   24
 STRESS PERIOD=  1 TIMESTEP=726 LAYER=  1 ZONE=  2 ACTIVE CELLS= 1178 NUMBER OF EQUATIONS=    1178
 SOLVING FOR ZETA FOR LAYER     2 ZONE     2

     613 UPPER PART EQS.       612 LOWER PART EQS.    BAND WIDTH + 1 =   34
 STRESS PERIOD=  1 TIMESTEP=726 LAYER=  2 ZONE=  2 ACTIVE CELLS= 1225 NUMBER OF EQUATIONS=    1225

 SOLVING FOR HEAD 

 NO OUTPUT CONTROL FOR STRESS PERIOD    1   TIME STEP  727
 SOLVING FOR ZETA FOR LAYER     1 ZONE     2

     609 UPPER PART EQS.       575 LOWER PART EQS.    BAND WIDTH + 1 =   54
 STRESS PERIOD=  1 TIMESTEP=727 LAYER=  1 ZONE=  2 ACTIVE CELLS= 1184 NUMBER OF EQUATIONS=    1184
 SOLVING FOR ZETA FOR LAYER     2 ZONE     2

     613 UPPER PART EQS.       612 LOWER PART EQS.    BAND WIDTH + 1 =   34
 STRESS PERIOD=  1 TIMESTEP=727 LAYER=  2 ZONE=  2 ACTIVE CELLS= 1225 NUMBER OF EQUATIONS=    1225

 SOLVING FOR HEAD 

 NO OUTPUT CONTROL FOR STRESS PERIOD    1   TIME STEP  728
 SOLVING FOR ZETA FOR LAYER     1 ZONE     2

     596 UPPER PART EQS.       603 LOWER PART EQS.    BAND WIDTH + 1 =   28
 STRESS PERIOD=  1 TIMESTEP=728 LAYER=  1 ZONE=  2 ACTIVE CELLS= 1199 NUMBER OF EQUATIONS=    1199
 SOLVING FOR ZETA FOR LAYER     2 ZONE     2

     613 UPPER PART EQS.       612 LOWER PART EQS.    BAND WIDTH + 1 =   34
 STRESS PERIOD=  1 TIMESTEP=728 LAYER=  2 ZONE=  2 ACTIVE CELLS= 1225 NUMBER OF EQUATIONS=    1225

 SOLVING FOR HEAD 

 NO OUTPUT CONTROL FOR STRESS PERIOD    1   TIME STEP  729
 SOLVING FOR ZETA FOR LAYER     1 ZONE     2

     592 UPPER PART EQS.       596 LOWER PART EQS.    BAND WIDTH + 1 =   25
 STRESS PERIOD=  1 TIMESTEP=729 LAYER=  1 ZONE=  2 ACTIVE CELLS= 1188 NUMBER OF EQUATIONS=    1188
 SOLVING FOR ZETA FOR LAYER     2 ZONE     2

     613 UPPER PART EQS.       612 LOWER PART EQS.    BAND WIDTH + 1 =   34
 STRESS PERIOD=  1 TIMESTEP=729 LAYER=  2 ZONE=  2 ACTIVE CELLS= 1225 NUMBER OF EQUATIONS=    1225

 SOLVING FOR HEAD 

 NO OUTPUT CONTROL FOR STRESS PERIOD    1   TIME STEP  730
 SOLVING FOR ZETA FOR LAYER     1 ZONE     2

     592 UPPER PART EQS.       600 LOWER PART EQS.    BAND WIDTH + 1 =   29
 STRESS PERIOD=  1 TIMESTEP=730 LAYER=  1 ZONE=  2 ACTIVE CELLS= 1192 NUMBER OF EQUATIONS=    1192
 SOLVING FOR ZETA FOR LAYER     2 ZONE     2

     613 UPPER PART EQS.       612 LOWER PART EQS.    BAND WIDTH + 1 =   34
 STRESS PERIOD=  1 TIMESTEP=730 LAYER=  2 ZONE=  2 ACTIVE CELLS= 1225 NUMBER OF EQUATIONS=    1225

 SOLVING FOR HEAD 

 NO OUTPUT CONTROL FOR STRESS PERIOD    1   TIME STEP  731
 SOLVING FOR ZETA FOR LAYER     1 ZONE     2

     590 UPPER PART EQS.       582 LOWER PART EQS.    BAND WIDTH + 1 =   29
 STRESS PERIOD=  1 TIMESTEP=731 LAYER=  1 ZONE=  2 ACTIVE CELLS= 1172 NUMBER OF EQUATIONS=    1172
 SOLVING FOR ZETA FOR LAYER     2 ZONE     2

     609 UPPER PART EQS.       612 LOWER PART EQS.    BAND WIDTH + 1 =   34
 STRESS PERIOD=  1 TIMESTEP=731 LAYER=  2 ZONE=  2 ACTIVE CELLS= 1221 NUMBER OF EQUATIONS=    1221

 SOLVING FOR HEAD 

 NO OUTPUT CONTROL FOR STRESS PERIOD    1   TIME STEP  732
 SOLVING FOR ZETA FOR LAYER     1 ZONE     2

     581 UPPER PART EQS.       588 LOWER PART EQS.    BAND WIDTH + 1 =   29
 STRESS PERIOD=  1 TIMESTEP=732 LAYER=  1 ZONE=  2 ACTIVE CELLS= 1169 NUMBER OF EQUATIONS=    1169
 SOLVING FOR ZETA FOR LAYER     2 ZONE     2

     613 UPPER PART EQS.       612 LOWER PART EQS.    BAND WIDTH + 1 =   34
 STRESS PERIOD=  1 TIMESTEP=732 LAYER=  2 ZONE=  2 ACTIVE CELLS= 1225 NUMBER OF EQUATIONS=    1225

 SOLVING FOR HEAD 

 NO OUTPUT CONTROL FOR STRESS PERIOD    1   TIME STEP  733
 SOLVING FOR ZETA FOR LAYER     1 ZONE     2

     598 UPPER PART EQS.       580 LOWER PART EQS.    BAND WIDTH + 1 =   40
 STRESS PERIOD=  1 TIMESTEP=733 LAYER=  1 ZONE=  2 ACTIVE CELLS= 1178 NUMBER OF EQUATIONS=    1178
 SOLVING FOR ZETA FOR LAYER     2 ZONE     2

     613 UPPER PART EQS.       612 LOWER PART EQS.    BAND WIDTH + 1 =   34
 STRESS PERIOD=  1 TIMESTEP=733 LAYER=  2 ZONE=  2 ACTIVE CELLS= 1225 NUMBER OF EQUATIONS=    1225

 SOLVING FOR HEAD 

 NO OUTPUT CONTROL FOR STRESS PERIOD    1   TIME STEP  734
 SOLVING FOR ZETA FOR LAYER     1 ZONE     2

     604 UPPER PART EQS.       600 LOWER PART EQS.    BAND WIDTH + 1 =   24
 STRESS PERIOD=  1 TIMESTEP=734 LAYER=  1 ZONE=  2 ACTIVE CELLS= 1204 NUMBER OF EQUATIONS=    1204
 SOLVING FOR ZETA FOR LAYER     2 ZONE     2

     613 UPPER PART EQS.       612 LOWER PART EQS.    BAND WIDTH + 1 =   34
 STRESS PERIOD=  1 TIMESTEP=734 LAYER=  2 ZONE=  2 ACTIVE CELLS= 1225 NUMBER OF EQUATIONS=    1225

 SOLVING FOR HEAD 

 NO OUTPUT CONTROL FOR STRESS PERIOD    1   TIME STEP  735
 SOLVING FOR ZETA FOR LAYER     1 ZONE     2

     604 UPPER PART EQS.       582 LOWER PART EQS.    BAND WIDTH + 1 =   41
 STRESS PERIOD=  1 TIMESTEP=735 LAYER=  1 ZONE=  2 ACTIVE CELLS= 1186 NUMBER OF EQUATIONS=    1186
 SOLVING FOR ZETA FOR LAYER     2 ZONE     2

     613 UPPER PART EQS.       612 LOWER PART EQS.    BAND WIDTH + 1 =   34
 STRESS PERIOD=  1 TIMESTEP=735 LAYER=  2 ZONE=  2 ACTIVE CELLS= 1225 NUMBER OF EQUATIONS=    1225

 SOLVING FOR HEAD 

 NO OUTPUT CONTROL FOR STRESS PERIOD    1   TIME STEP  736
 SOLVING FOR ZETA FOR LAYER     1 ZONE     2

     602 UPPER PART EQS.       589 LOWER PART EQS.    BAND WIDTH + 1 =   30
 STRESS PERIOD=  1 TIMESTEP=736 LAYER=  1 ZONE=  2 ACTIVE CELLS= 1191 NUMBER OF EQUATIONS=    1191
 SOLVING FOR ZETA FOR LAYER     2 ZONE     2

     613 UPPER PART EQS.       612 LOWER PART EQS.    BAND WIDTH + 1 =   34
 STRESS PERIOD=  1 TIMESTEP=736 LAYER=  2 ZONE=  2 ACTIVE CELLS= 1225 NUMBER OF EQUATIONS=    1225

 SOLVING FOR HEAD 

 NO OUTPUT CONTROL FOR STRESS PERIOD    1   TIME STEP  737
 SOLVING FOR ZETA FOR LAYER     1 ZONE     2

     592 UPPER PART EQS.       593 LOWER PART EQS.    BAND WIDTH + 1 =   24
 STRESS PERIOD=  1 TIMESTEP=737 LAYER=  1 ZONE=  2 ACTIVE CELLS= 1185 NUMBER OF EQUATIONS=    1185
 SOLVING FOR ZETA FOR LAYER     2 ZONE     2

     613 UPPER PART EQS.       612 LOWER PART EQS.    BAND WIDTH + 1 =   34
 STRESS PERIOD=  1 TIMESTEP=737 LAYER=  2 ZONE=  2 ACTIVE CELLS= 1225 NUMBER OF EQUATIONS=    1225

 SOLVING FOR HEAD 

 NO OUTPUT CONTROL FOR STRESS PERIOD    1   TIME STEP  738
 SOLVING FOR ZETA FOR LAYER     1 ZONE     2

     583 UPPER PART EQS.       596 LOWER PART EQS.    BAND WIDTH + 1 =   34
 STRESS PERIOD=  1 TIMESTEP=738 LAYER=  1 ZONE=  2 ACTIVE CELLS= 1179 NUMBER OF EQUATIONS=    1179
 SOLVING FOR ZETA FOR LAYER     2 ZONE     2

     613 UPPER PART EQS.       612 LOWER PART EQS.    BAND WIDTH + 1 =   34
 STRESS PERIOD=  1 TIMESTEP=738 LAYER=  2 ZONE=  2 ACTIVE CELLS= 1225 NUMBER OF EQUATIONS=    1225

 SOLVING FOR HEAD 

 NO OUTPUT CONTROL FOR STRESS PERIOD    1   TIME STEP  739
 SOLVING FOR ZETA FOR LAYER     1 ZONE     2

     600 UPPER PART EQS.       580 LOWER PART EQS.    BAND WIDTH + 1 =   43
 STRESS PERIOD=  1 TIMESTEP=739 LAYER=  1 ZONE=  2 ACTIVE CELLS= 1180 NUMBER OF EQUATIONS=    1180
 SOLVING FOR ZETA FOR LAYER     2 ZONE     2

     613 UPPER PART EQS.       612 LOWER PART EQS.    BAND WIDTH + 1 =   34
 STRESS PERIOD=  1 TIMESTEP=739 LAYER=  2 ZONE=  2 ACTIVE CELLS= 1225 NUMBER OF EQUATIONS=    1225

 SOLVING FOR HEAD 

 NO OUTPUT CONTROL FOR STRESS PERIOD    1   TIME STEP  740
 SOLVING FOR ZETA FOR LAYER     1 ZONE     2

     594 UPPER PART EQS.       604 LOWER PART EQS.    BAND WIDTH + 1 =   35
 STRESS PERIOD=  1 TIMESTEP=740 LAYER=  1 ZONE=  2 ACTIVE CELLS= 1198 NUMBER OF EQUATIONS=    1198
 SOLVING FOR ZETA FOR LAYER     2 ZONE     2

     613 UPPER PART EQS.       612 LOWER PART EQS.    BAND WIDTH + 1 =   34
 STRESS PERIOD=  1 TIMESTEP=740 LAYER=  2 ZONE=  2 ACTIVE CELLS= 1225 NUMBER OF EQUATIONS=    1225

 SOLVING FOR HEAD 

 NO OUTPUT CONTROL FOR STRESS PERIOD    1   TIME STEP  741
 SOLVING FOR ZETA FOR LAYER     1 ZONE     2

     594 UPPER PART EQS.       592 LOWER PART EQS.    BAND WIDTH + 1 =   25
 STRESS PERIOD=  1 TIMESTEP=741 LAYER=  1 ZONE=  2 ACTIVE CELLS= 1186 NUMBER OF EQUATIONS=    1186
 SOLVING FOR ZETA FOR LAYER     2 ZONE     2

     613 UPPER PART EQS.       612 LOWER PART EQS.    BAND WIDTH + 1 =   34
 STRESS PERIOD=  1 TIMESTEP=741 LAYER=  2 ZONE=  2 ACTIVE CELLS= 1225 NUMBER OF EQUATIONS=    1225

 SOLVING FOR HEAD 

 NO OUTPUT CONTROL FOR STRESS PERIOD    1   TIME STEP  742
 SOLVING FOR ZETA FOR LAYER     1 ZONE     2

     590 UPPER PART EQS.       596 LOWER PART EQS.    BAND WIDTH + 1 =   28
 STRESS PERIOD=  1 TIMESTEP=742 LAYER=  1 ZONE=  2 ACTIVE CELLS= 1186 NUMBER OF EQUATIONS=    1186
 SOLVING FOR ZETA FOR LAYER     2 ZONE     2

     613 UPPER PART EQS.       612 LOWER PART EQS.    BAND WIDTH + 1 =   34
 STRESS PERIOD=  1 TIMESTEP=742 LAYER=  2 ZONE=  2 ACTIVE CELLS= 1225 NUMBER OF EQUATIONS=    1225

 SOLVING FOR HEAD 

 NO OUTPUT CONTROL FOR STRESS PERIOD    1   TIME STEP  743
 SOLVING FOR ZETA FOR LAYER     1 ZONE     2

     590 UPPER PART EQS.       585 LOWER PART EQS.    BAND WIDTH + 1 =   29
 STRESS PERIOD=  1 TIMESTEP=743 LAYER=  1 ZONE=  2 ACTIVE CELLS= 1175 NUMBER OF EQUATIONS=    1175
 SOLVING FOR ZETA FOR LAYER     2 ZONE     2

     613 UPPER PART EQS.       612 LOWER PART EQS.    BAND WIDTH + 1 =   34
 STRESS PERIOD=  1 TIMESTEP=743 LAYER=  2 ZONE=  2 ACTIVE CELLS= 1225 NUMBER OF EQUATIONS=    1225

 SOLVING FOR HEAD 

 NO OUTPUT CONTROL FOR STRESS PERIOD    1   TIME STEP  744
 SOLVING FOR ZETA FOR LAYER     1 ZONE     2

     581 UPPER PART EQS.       599 LOWER PART EQS.    BAND WIDTH + 1 =   39
 STRESS PERIOD=  1 TIMESTEP=744 LAYER=  1 ZONE=  2 ACTIVE CELLS= 1180 NUMBER OF EQUATIONS=    1180
 SOLVING FOR ZETA FOR LAYER     2 ZONE     2

     613 UPPER PART EQS.       612 LOWER PART EQS.    BAND WIDTH + 1 =   34
 STRESS PERIOD=  1 TIMESTEP=744 LAYER=  2 ZONE=  2 ACTIVE CELLS= 1225 NUMBER OF EQUATIONS=    1225

 SOLVING FOR HEAD 

 NO OUTPUT CONTROL FOR STRESS PERIOD    1   TIME STEP  745
 SOLVING FOR ZETA FOR LAYER     1 ZONE     2

     600 UPPER PART EQS.       590 LOWER PART EQS.    BAND WIDTH + 1 =   34
 STRESS PERIOD=  1 TIMESTEP=745 LAYER=  1 ZONE=  2 ACTIVE CELLS= 1190 NUMBER OF EQUATIONS=    1190
 SOLVING FOR ZETA FOR LAYER     2 ZONE     2

     613 UPPER PART EQS.       612 LOWER PART EQS.    BAND WIDTH + 1 =   34
 STRESS PERIOD=  1 TIMESTEP=745 LAYER=  2 ZONE=  2 ACTIVE CELLS= 1225 NUMBER OF EQUATIONS=    1225

 SOLVING FOR HEAD 

 NO OUTPUT CONTROL FOR STRESS PERIOD    1   TIME STEP  746
 SOLVING FOR ZETA FOR LAYER     1 ZONE     2

     600 UPPER PART EQS.       608 LOWER PART EQS.    BAND WIDTH + 1 =   35
 STRESS PERIOD=  1 TIMESTEP=746 LAYER=  1 ZONE=  2 ACTIVE CELLS= 1208 NUMBER OF EQUATIONS=    1208
 SOLVING FOR ZETA FOR LAYER     2 ZONE     2

     613 UPPER PART EQS.       612 LOWER PART EQS.    BAND WIDTH + 1 =   34
 STRESS PERIOD=  1 TIMESTEP=746 LAYER=  2 ZONE=  2 ACTIVE CELLS= 1225 NUMBER OF EQUATIONS=    1225

 SOLVING FOR HEAD 

 NO OUTPUT CONTROL FOR STRESS PERIOD    1   TIME STEP  747
 SOLVING FOR ZETA FOR LAYER     1 ZONE     2

     600 UPPER PART EQS.       586 LOWER PART EQS.    BAND WIDTH + 1 =   33
 STRESS PERIOD=  1 TIMESTEP=747 LAYER=  1 ZONE=  2 ACTIVE CELLS= 1186 NUMBER OF EQUATIONS=    1186
 SOLVING FOR ZETA FOR LAYER     2 ZONE     2

     613 UPPER PART EQS.       612 LOWER PART EQS.    BAND WIDTH + 1 =   34
 STRESS PERIOD=  1 TIMESTEP=747 LAYER=  2 ZONE=  2 ACTIVE CELLS= 1225 NUMBER OF EQUATIONS=    1225

 SOLVING FOR HEAD 

 NO OUTPUT CONTROL FOR STRESS PERIOD    1   TIME STEP  748
 SOLVING FOR ZETA FOR LAYER     1 ZONE     2

     594 UPPER PART EQS.       594 LOWER PART EQS.    BAND WIDTH + 1 =   26
 STRESS PERIOD=  1 TIMESTEP=748 LAYER=  1 ZONE=  2 ACTIVE CELLS= 1188 NUMBER OF EQUATIONS=    1188
 SOLVING FOR ZETA FOR LAYER     2 ZONE     2

     613 UPPER PART EQS.       612 LOWER PART EQS.    BAND WIDTH + 1 =   34
 STRESS PERIOD=  1 TIMESTEP=748 LAYER=  2 ZONE=  2 ACTIVE CELLS= 1225 NUMBER OF EQUATIONS=    1225

 SOLVING FOR HEAD 

 NO OUTPUT CONTROL FOR STRESS PERIOD    1   TIME STEP  749
 SOLVING FOR ZETA FOR LAYER     1 ZONE     2

     590 UPPER PART EQS.       586 LOWER PART EQS.    BAND WIDTH + 1 =   25
 STRESS PERIOD=  1 TIMESTEP=749 LAYER=  1 ZONE=  2 ACTIVE CELLS= 1176 NUMBER OF EQUATIONS=    1176
 SOLVING FOR ZETA FOR LAYER     2 ZONE     2

     613 UPPER PART EQS.       612 LOWER PART EQS.    BAND WIDTH + 1 =   34
 STRESS PERIOD=  1 TIMESTEP=749 LAYER=  2 ZONE=  2 ACTIVE CELLS= 1225 NUMBER OF EQUATIONS=    1225

 SOLVING FOR HEAD 

 NO OUTPUT CONTROL FOR STRESS PERIOD    1   TIME STEP  750
 SOLVING FOR ZETA FOR LAYER     1 ZONE     2

     580 UPPER PART EQS.       592 LOWER PART EQS.    BAND WIDTH + 1 =   34
 STRESS PERIOD=  1 TIMESTEP=750 LAYER=  1 ZONE=  2 ACTIVE CELLS= 1172 NUMBER OF EQUATIONS=    1172
 SOLVING FOR ZETA FOR LAYER     2 ZONE     2

     613 UPPER PART EQS.       612 LOWER PART EQS.    BAND WIDTH + 1 =   34
 STRESS PERIOD=  1 TIMESTEP=750 LAYER=  2 ZONE=  2 ACTIVE CELLS= 1225 NUMBER OF EQUATIONS=    1225

 SOLVING FOR HEAD 

 NO OUTPUT CONTROL FOR STRESS PERIOD    1   TIME STEP  751
 SOLVING FOR ZETA FOR LAYER     1 ZONE     2

     595 UPPER PART EQS.       580 LOWER PART EQS.    BAND WIDTH + 1 =   39
 STRESS PERIOD=  1 TIMESTEP=751 LAYER=  1 ZONE=  2 ACTIVE CELLS= 1175 NUMBER OF EQUATIONS=    1175
 SOLVING FOR ZETA FOR LAYER     2 ZONE     2

     613 UPPER PART EQS.       612 LOWER PART EQS.    BAND WIDTH + 1 =   34
 STRESS PERIOD=  1 TIMESTEP=751 LAYER=  2 ZONE=  2 ACTIVE CELLS= 1225 NUMBER OF EQUATIONS=    1225

 SOLVING FOR HEAD 

 NO OUTPUT CONTROL FOR STRESS PERIOD    1   TIME STEP  752
 SOLVING FOR ZETA FOR LAYER     1 ZONE     2

     588 UPPER PART EQS.       612 LOWER PART EQS.    BAND WIDTH + 1 =   47
 STRESS PERIOD=  1 TIMESTEP=752 LAYER=  1 ZONE=  2 ACTIVE CELLS= 1200 NUMBER OF EQUATIONS=    1200
 SOLVING FOR ZETA FOR LAYER     2 ZONE     2

     613 UPPER PART EQS.       612 LOWER PART EQS.    BAND WIDTH + 1 =   34
 STRESS PERIOD=  1 TIMESTEP=752 LAYER=  2 ZONE=  2 ACTIVE CELLS= 1225 NUMBER OF EQUATIONS=    1225

 SOLVING FOR HEAD 

 NO OUTPUT CONTROL FOR STRESS PERIOD    1   TIME STEP  753
 SOLVING FOR ZETA FOR LAYER     1 ZONE     2

     594 UPPER PART EQS.       591 LOWER PART EQS.    BAND WIDTH + 1 =   24
 STRESS PERIOD=  1 TIMESTEP=753 LAYER=  1 ZONE=  2 ACTIVE CELLS= 1185 NUMBER OF EQUATIONS=    1185
 SOLVING FOR ZETA FOR LAYER     2 ZONE     2

     613 UPPER PART EQS.       612 LOWER PART EQS.    BAND WIDTH + 1 =   34
 STRESS PERIOD=  1 TIMESTEP=753 LAYER=  2 ZONE=  2 ACTIVE CELLS= 1225 NUMBER OF EQUATIONS=    1225

 SOLVING FOR HEAD 

 NO OUTPUT CONTROL FOR STRESS PERIOD    1   TIME STEP  754
 SOLVING FOR ZETA FOR LAYER     1 ZONE     2

     596 UPPER PART EQS.       593 LOWER PART EQS.    BAND WIDTH + 1 =   24
 STRESS PERIOD=  1 TIMESTEP=754 LAYER=  1 ZONE=  2 ACTIVE CELLS= 1189 NUMBER OF EQUATIONS=    1189
 SOLVING FOR ZETA FOR LAYER     2 ZONE     2

     613 UPPER PART EQS.       612 LOWER PART EQS.    BAND WIDTH + 1 =   34
 STRESS PERIOD=  1 TIMESTEP=754 LAYER=  2 ZONE=  2 ACTIVE CELLS= 1225 NUMBER OF EQUATIONS=    1225

 SOLVING FOR HEAD 

 NO OUTPUT CONTROL FOR STRESS PERIOD    1   TIME STEP  755
 SOLVING FOR ZETA FOR LAYER     1 ZONE     2

     596 UPPER PART EQS.       577 LOWER PART EQS.    BAND WIDTH + 1 =   39
 STRESS PERIOD=  1 TIMESTEP=755 LAYER=  1 ZONE=  2 ACTIVE CELLS= 1173 NUMBER OF EQUATIONS=    1173
 SOLVING FOR ZETA FOR LAYER     2 ZONE     2

     613 UPPER PART EQS.       612 LOWER PART EQS.    BAND WIDTH + 1 =   34
 STRESS PERIOD=  1 TIMESTEP=755 LAYER=  2 ZONE=  2 ACTIVE CELLS= 1225 NUMBER OF EQUATIONS=    1225

 SOLVING FOR HEAD 

 NO OUTPUT CONTROL FOR STRESS PERIOD    1   TIME STEP  756
 SOLVING FOR ZETA FOR LAYER     1 ZONE     2

     589 UPPER PART EQS.       601 LOWER PART EQS.    BAND WIDTH + 1 =   37
 STRESS PERIOD=  1 TIMESTEP=756 LAYER=  1 ZONE=  2 ACTIVE CELLS= 1190 NUMBER OF EQUATIONS=    1190
 SOLVING FOR ZETA FOR LAYER     2 ZONE     2

     613 UPPER PART EQS.       612 LOWER PART EQS.    BAND WIDTH + 1 =   34
 STRESS PERIOD=  1 TIMESTEP=756 LAYER=  2 ZONE=  2 ACTIVE CELLS= 1225 NUMBER OF EQUATIONS=    1225

 SOLVING FOR HEAD 

 NO OUTPUT CONTROL FOR STRESS PERIOD    1   TIME STEP  757
 SOLVING FOR ZETA FOR LAYER     1 ZONE     2

     598 UPPER PART EQS.       592 LOWER PART EQS.    BAND WIDTH + 1 =   31
 STRESS PERIOD=  1 TIMESTEP=757 LAYER=  1 ZONE=  2 ACTIVE CELLS= 1190 NUMBER OF EQUATIONS=    1190
 SOLVING FOR ZETA FOR LAYER     2 ZONE     2

     613 UPPER PART EQS.       612 LOWER PART EQS.    BAND WIDTH + 1 =   34
 STRESS PERIOD=  1 TIMESTEP=757 LAYER=  2 ZONE=  2 ACTIVE CELLS= 1225 NUMBER OF EQUATIONS=    1225

 SOLVING FOR HEAD 

 NO OUTPUT CONTROL FOR STRESS PERIOD    1   TIME STEP  758
 SOLVING FOR ZETA FOR LAYER     1 ZONE     2

     587 UPPER PART EQS.       613 LOWER PART EQS.    BAND WIDTH + 1 =   45
 STRESS PERIOD=  1 TIMESTEP=758 LAYER=  1 ZONE=  2 ACTIVE CELLS= 1200 NUMBER OF EQUATIONS=    1200
 SOLVING FOR ZETA FOR LAYER     2 ZONE     2

     613 UPPER PART EQS.       612 LOWER PART EQS.    BAND WIDTH + 1 =   34
 STRESS PERIOD=  1 TIMESTEP=758 LAYER=  2 ZONE=  2 ACTIVE CELLS= 1225 NUMBER OF EQUATIONS=    1225

 SOLVING FOR HEAD 

 NO OUTPUT CONTROL FOR STRESS PERIOD    1   TIME STEP  759
 SOLVING FOR ZETA FOR LAYER     1 ZONE     2

     587 UPPER PART EQS.       591 LOWER PART EQS.    BAND WIDTH + 1 =   24
 STRESS PERIOD=  1 TIMESTEP=759 LAYER=  1 ZONE=  2 ACTIVE CELLS= 1178 NUMBER OF EQUATIONS=    1178
 SOLVING FOR ZETA FOR LAYER     2 ZONE     2

     613 UPPER PART EQS.       612 LOWER PART EQS.    BAND WIDTH + 1 =   34
 STRESS PERIOD=  1 TIMESTEP=759 LAYER=  2 ZONE=  2 ACTIVE CELLS= 1225 NUMBER OF EQUATIONS=    1225

 SOLVING FOR HEAD 

 NO OUTPUT CONTROL FOR STRESS PERIOD    1   TIME STEP  760
 SOLVING FOR ZETA FOR LAYER     1 ZONE     2

     590 UPPER PART EQS.       602 LOWER PART EQS.    BAND WIDTH + 1 =   33
 STRESS PERIOD=  1 TIMESTEP=760 LAYER=  1 ZONE=  2 ACTIVE CELLS= 1192 NUMBER OF EQUATIONS=    1192
 SOLVING FOR ZETA FOR LAYER     2 ZONE     2

     613 UPPER PART EQS.       612 LOWER PART EQS.    BAND WIDTH + 1 =   34
 STRESS PERIOD=  1 TIMESTEP=760 LAYER=  2 ZONE=  2 ACTIVE CELLS= 1225 NUMBER OF EQUATIONS=    1225

 SOLVING FOR HEAD 

 NO OUTPUT CONTROL FOR STRESS PERIOD    1   TIME STEP  761
 SOLVING FOR ZETA FOR LAYER     1 ZONE     2

     592 UPPER PART EQS.       579 LOWER PART EQS.    BAND WIDTH + 1 =   30
 STRESS PERIOD=  1 TIMESTEP=761 LAYER=  1 ZONE=  2 ACTIVE CELLS= 1171 NUMBER OF EQUATIONS=    1171
 SOLVING FOR ZETA FOR LAYER     2 ZONE     2

     613 UPPER PART EQS.       612 LOWER PART EQS.    BAND WIDTH + 1 =   34
 STRESS PERIOD=  1 TIMESTEP=761 LAYER=  2 ZONE=  2 ACTIVE CELLS= 1225 NUMBER OF EQUATIONS=    1225

 SOLVING FOR HEAD 

 NO OUTPUT CONTROL FOR STRESS PERIOD    1   TIME STEP  762
 SOLVING FOR ZETA FOR LAYER     1 ZONE     2

     590 UPPER PART EQS.       599 LOWER PART EQS.    BAND WIDTH + 1 =   37
 STRESS PERIOD=  1 TIMESTEP=762 LAYER=  1 ZONE=  2 ACTIVE CELLS= 1189 NUMBER OF EQUATIONS=    1189
 SOLVING FOR ZETA FOR LAYER     2 ZONE     2

     613 UPPER PART EQS.       612 LOWER PART EQS.    BAND WIDTH + 1 =   34
 STRESS PERIOD=  1 TIMESTEP=762 LAYER=  2 ZONE=  2 ACTIVE CELLS= 1225 NUMBER OF EQUATIONS=    1225

 SOLVING FOR HEAD 

 NO OUTPUT CONTROL FOR STRESS PERIOD    1   TIME STEP  763
 SOLVING FOR ZETA FOR LAYER     1 ZONE     2

     604 UPPER PART EQS.       580 LOWER PART EQS.    BAND WIDTH + 1 =   45
 STRESS PERIOD=  1 TIMESTEP=763 LAYER=  1 ZONE=  2 ACTIVE CELLS= 1184 NUMBER OF EQUATIONS=    1184
 SOLVING FOR ZETA FOR LAYER     2 ZONE     2

     613 UPPER PART EQS.       612 LOWER PART EQS.    BAND WIDTH + 1 =   34
 STRESS PERIOD=  1 TIMESTEP=763 LAYER=  2 ZONE=  2 ACTIVE CELLS= 1225 NUMBER OF EQUATIONS=    1225

 SOLVING FOR HEAD 

 NO OUTPUT CONTROL FOR STRESS PERIOD    1   TIME STEP  764
 SOLVING FOR ZETA FOR LAYER     1 ZONE     2

     592 UPPER PART EQS.       604 LOWER PART EQS.    BAND WIDTH + 1 =   36
 STRESS PERIOD=  1 TIMESTEP=764 LAYER=  1 ZONE=  2 ACTIVE CELLS= 1196 NUMBER OF EQUATIONS=    1196
 SOLVING FOR ZETA FOR LAYER     2 ZONE     2

     613 UPPER PART EQS.       612 LOWER PART EQS.    BAND WIDTH + 1 =   34
 STRESS PERIOD=  1 TIMESTEP=764 LAYER=  2 ZONE=  2 ACTIVE CELLS= 1225 NUMBER OF EQUATIONS=    1225

 SOLVING FOR HEAD 

 NO OUTPUT CONTROL FOR STRESS PERIOD    1   TIME STEP  765
 SOLVING FOR ZETA FOR LAYER     1 ZONE     2

     591 UPPER PART EQS.       596 LOWER PART EQS.    BAND WIDTH + 1 =   26
 STRESS PERIOD=  1 TIMESTEP=765 LAYER=  1 ZONE=  2 ACTIVE CELLS= 1187 NUMBER OF EQUATIONS=    1187
 SOLVING FOR ZETA FOR LAYER     2 ZONE     2

     613 UPPER PART EQS.       612 LOWER PART EQS.    BAND WIDTH + 1 =   34
 STRESS PERIOD=  1 TIMESTEP=765 LAYER=  2 ZONE=  2 ACTIVE CELLS= 1225 NUMBER OF EQUATIONS=    1225

 SOLVING FOR HEAD 

 NO OUTPUT CONTROL FOR STRESS PERIOD    1   TIME STEP  766
 SOLVING FOR ZETA FOR LAYER     1 ZONE     2

     588 UPPER PART EQS.       596 LOWER PART EQS.    BAND WIDTH + 1 =   31
 STRESS PERIOD=  1 TIMESTEP=766 LAYER=  1 ZONE=  2 ACTIVE CELLS= 1184 NUMBER OF EQUATIONS=    1184
 SOLVING FOR ZETA FOR LAYER     2 ZONE     2

     613 UPPER PART EQS.       612 LOWER PART EQS.    BAND WIDTH + 1 =   34
 STRESS PERIOD=  1 TIMESTEP=766 LAYER=  2 ZONE=  2 ACTIVE CELLS= 1225 NUMBER OF EQUATIONS=    1225

 SOLVING FOR HEAD 

 NO OUTPUT CONTROL FOR STRESS PERIOD    1   TIME STEP  767
 SOLVING FOR ZETA FOR LAYER     1 ZONE     2

     590 UPPER PART EQS.       582 LOWER PART EQS.    BAND WIDTH + 1 =   31
 STRESS PERIOD=  1 TIMESTEP=767 LAYER=  1 ZONE=  2 ACTIVE CELLS= 1172 NUMBER OF EQUATIONS=    1172
 SOLVING FOR ZETA FOR LAYER     2 ZONE     2

     613 UPPER PART EQS.       612 LOWER PART EQS.    BAND WIDTH + 1 =   34
 STRESS PERIOD=  1 TIMESTEP=767 LAYER=  2 ZONE=  2 ACTIVE CELLS= 1225 NUMBER OF EQUATIONS=    1225

 SOLVING FOR HEAD 

 NO OUTPUT CONTROL FOR STRESS PERIOD    1   TIME STEP  768
 SOLVING FOR ZETA FOR LAYER     1 ZONE     2

     592 UPPER PART EQS.       608 LOWER PART EQS.    BAND WIDTH + 1 =   40
 STRESS PERIOD=  1 TIMESTEP=768 LAYER=  1 ZONE=  2 ACTIVE CELLS= 1200 NUMBER OF EQUATIONS=    1200
 SOLVING FOR ZETA FOR LAYER     2 ZONE     2

     613 UPPER PART EQS.       612 LOWER PART EQS.    BAND WIDTH + 1 =   34
 STRESS PERIOD=  1 TIMESTEP=768 LAYER=  2 ZONE=  2 ACTIVE CELLS= 1225 NUMBER OF EQUATIONS=    1225

 SOLVING FOR HEAD 

 NO OUTPUT CONTROL FOR STRESS PERIOD    1   TIME STEP  769
 SOLVING FOR ZETA FOR LAYER     1 ZONE     2

     602 UPPER PART EQS.       594 LOWER PART EQS.    BAND WIDTH + 1 =   34
 STRESS PERIOD=  1 TIMESTEP=769 LAYER=  1 ZONE=  2 ACTIVE CELLS= 1196 NUMBER OF EQUATIONS=    1196
 SOLVING FOR ZETA FOR LAYER     2 ZONE     2

     613 UPPER PART EQS.       612 LOWER PART EQS.    BAND WIDTH + 1 =   34
 STRESS PERIOD=  1 TIMESTEP=769 LAYER=  2 ZONE=  2 ACTIVE CELLS= 1225 NUMBER OF EQUATIONS=    1225

 SOLVING FOR HEAD 

 NO OUTPUT CONTROL FOR STRESS PERIOD    1   TIME STEP  770
 SOLVING FOR ZETA FOR LAYER     1 ZONE     2

     596 UPPER PART EQS.       598 LOWER PART EQS.    BAND WIDTH + 1 =   26
 STRESS PERIOD=  1 TIMESTEP=770 LAYER=  1 ZONE=  2 ACTIVE CELLS= 1194 NUMBER OF EQUATIONS=    1194
 SOLVING FOR ZETA FOR LAYER     2 ZONE     2

     613 UPPER PART EQS.       612 LOWER PART EQS.    BAND WIDTH + 1 =   34
 STRESS PERIOD=  1 TIMESTEP=770 LAYER=  2 ZONE=  2 ACTIVE CELLS= 1225 NUMBER OF EQUATIONS=    1225

 SOLVING FOR HEAD 

 NO OUTPUT CONTROL FOR STRESS PERIOD    1   TIME STEP  771
 SOLVING FOR ZETA FOR LAYER     1 ZONE     2

     588 UPPER PART EQS.       600 LOWER PART EQS.    BAND WIDTH + 1 =   34
 STRESS PERIOD=  1 TIMESTEP=771 LAYER=  1 ZONE=  2 ACTIVE CELLS= 1188 NUMBER OF EQUATIONS=    1188
 SOLVING FOR ZETA FOR LAYER     2 ZONE     2

     613 UPPER PART EQS.       612 LOWER PART EQS.    BAND WIDTH + 1 =   34
 STRESS PERIOD=  1 TIMESTEP=771 LAYER=  2 ZONE=  2 ACTIVE CELLS= 1225 NUMBER OF EQUATIONS=    1225

 SOLVING FOR HEAD 

 NO OUTPUT CONTROL FOR STRESS PERIOD    1   TIME STEP  772
 SOLVING FOR ZETA FOR LAYER     1 ZONE     2

     592 UPPER PART EQS.       597 LOWER PART EQS.    BAND WIDTH + 1 =   33
 STRESS PERIOD=  1 TIMESTEP=772 LAYER=  1 ZONE=  2 ACTIVE CELLS= 1189 NUMBER OF EQUATIONS=    1189
 SOLVING FOR ZETA FOR LAYER     2 ZONE     2

     613 UPPER PART EQS.       612 LOWER PART EQS.    BAND WIDTH + 1 =   34
 STRESS PERIOD=  1 TIMESTEP=772 LAYER=  2 ZONE=  2 ACTIVE CELLS= 1225 NUMBER OF EQUATIONS=    1225

 SOLVING FOR HEAD 

 NO OUTPUT CONTROL FOR STRESS PERIOD    1   TIME STEP  773
 SOLVING FOR ZETA FOR LAYER     1 ZONE     2

     597 UPPER PART EQS.       579 LOWER PART EQS.    BAND WIDTH + 1 =   37
 STRESS PERIOD=  1 TIMESTEP=773 LAYER=  1 ZONE=  2 ACTIVE CELLS= 1176 NUMBER OF EQUATIONS=    1176
 SOLVING FOR ZETA FOR LAYER     2 ZONE     2

     613 UPPER PART EQS.       612 LOWER PART EQS.    BAND WIDTH + 1 =   34
 STRESS PERIOD=  1 TIMESTEP=773 LAYER=  2 ZONE=  2 ACTIVE CELLS= 1225 NUMBER OF EQUATIONS=    1225

 SOLVING FOR HEAD 

 NO OUTPUT CONTROL FOR STRESS PERIOD    1   TIME STEP  774
 SOLVING FOR ZETA FOR LAYER     1 ZONE     2

     598 UPPER PART EQS.       602 LOWER PART EQS.    BAND WIDTH + 1 =   32
 STRESS PERIOD=  1 TIMESTEP=774 LAYER=  1 ZONE=  2 ACTIVE CELLS= 1200 NUMBER OF EQUATIONS=    1200
 SOLVING FOR ZETA FOR LAYER     2 ZONE     2

     613 UPPER PART EQS.       612 LOWER PART EQS.    BAND WIDTH + 1 =   34
 STRESS PERIOD=  1 TIMESTEP=774 LAYER=  2 ZONE=  2 ACTIVE CELLS= 1225 NUMBER OF EQUATIONS=    1225

 SOLVING FOR HEAD 

 NO OUTPUT CONTROL FOR STRESS PERIOD    1   TIME STEP  775
 SOLVING FOR ZETA FOR LAYER     1 ZONE     2

     604 UPPER PART EQS.       582 LOWER PART EQS.    BAND WIDTH + 1 =   41
 STRESS PERIOD=  1 TIMESTEP=775 LAYER=  1 ZONE=  2 ACTIVE CELLS= 1186 NUMBER OF EQUATIONS=    1186
 SOLVING FOR ZETA FOR LAYER     2 ZONE     2

     613 UPPER PART EQS.       612 LOWER PART EQS.    BAND WIDTH + 1 =   34
 STRESS PERIOD=  1 TIMESTEP=775 LAYER=  2 ZONE=  2 ACTIVE CELLS= 1225 NUMBER OF EQUATIONS=    1225

 SOLVING FOR HEAD 

 NO OUTPUT CONTROL FOR STRESS PERIOD    1   TIME STEP  776
 SOLVING FOR ZETA FOR LAYER     1 ZONE     2

     596 UPPER PART EQS.       606 LOWER PART EQS.    BAND WIDTH + 1 =   37
 STRESS PERIOD=  1 TIMESTEP=776 LAYER=  1 ZONE=  2 ACTIVE CELLS= 1202 NUMBER OF EQUATIONS=    1202
 SOLVING FOR ZETA FOR LAYER     2 ZONE     2

     613 UPPER PART EQS.       612 LOWER PART EQS.    BAND WIDTH + 1 =   34
 STRESS PERIOD=  1 TIMESTEP=776 LAYER=  2 ZONE=  2 ACTIVE CELLS= 1225 NUMBER OF EQUATIONS=    1225

 SOLVING FOR HEAD 

 NO OUTPUT CONTROL FOR STRESS PERIOD    1   TIME STEP  777
 SOLVING FOR ZETA FOR LAYER     1 ZONE     2

     596 UPPER PART EQS.       590 LOWER PART EQS.    BAND WIDTH + 1 =   27
 STRESS PERIOD=  1 TIMESTEP=777 LAYER=  1 ZONE=  2 ACTIVE CELLS= 1186 NUMBER OF EQUATIONS=    1186
 SOLVING FOR ZETA FOR LAYER     2 ZONE     2

     613 UPPER PART EQS.       612 LOWER PART EQS.    BAND WIDTH + 1 =   34
 STRESS PERIOD=  1 TIMESTEP=777 LAYER=  2 ZONE=  2 ACTIVE CELLS= 1225 NUMBER OF EQUATIONS=    1225

 SOLVING FOR HEAD 

 NO OUTPUT CONTROL FOR STRESS PERIOD    1   TIME STEP  778
 SOLVING FOR ZETA FOR LAYER     1 ZONE     2

     596 UPPER PART EQS.       596 LOWER PART EQS.    BAND WIDTH + 1 =   28
 STRESS PERIOD=  1 TIMESTEP=778 LAYER=  1 ZONE=  2 ACTIVE CELLS= 1192 NUMBER OF EQUATIONS=    1192
 SOLVING FOR ZETA FOR LAYER     2 ZONE     2

     613 UPPER PART EQS.       612 LOWER PART EQS.    BAND WIDTH + 1 =   34
 STRESS PERIOD=  1 TIMESTEP=778 LAYER=  2 ZONE=  2 ACTIVE CELLS= 1225 NUMBER OF EQUATIONS=    1225

 SOLVING FOR HEAD 

 NO OUTPUT CONTROL FOR STRESS PERIOD    1   TIME STEP  779
 SOLVING FOR ZETA FOR LAYER     1 ZONE     2

     598 UPPER PART EQS.       592 LOWER PART EQS.    BAND WIDTH + 1 =   33
 STRESS PERIOD=  1 TIMESTEP=779 LAYER=  1 ZONE=  2 ACTIVE CELLS= 1190 NUMBER OF EQUATIONS=    1190
 SOLVING FOR ZETA FOR LAYER     2 ZONE     2

     613 UPPER PART EQS.       612 LOWER PART EQS.    BAND WIDTH + 1 =   34
 STRESS PERIOD=  1 TIMESTEP=779 LAYER=  2 ZONE=  2 ACTIVE CELLS= 1225 NUMBER OF EQUATIONS=    1225

 SOLVING FOR HEAD 

 NO OUTPUT CONTROL FOR STRESS PERIOD    1   TIME STEP  780
 SOLVING FOR ZETA FOR LAYER     1 ZONE     2

     583 UPPER PART EQS.       608 LOWER PART EQS.    BAND WIDTH + 1 =   45
 STRESS PERIOD=  1 TIMESTEP=780 LAYER=  1 ZONE=  2 ACTIVE CELLS= 1191 NUMBER OF EQUATIONS=    1191
 SOLVING FOR ZETA FOR LAYER     2 ZONE     2

     613 UPPER PART EQS.       612 LOWER PART EQS.    BAND WIDTH + 1 =   34
 STRESS PERIOD=  1 TIMESTEP=780 LAYER=  2 ZONE=  2 ACTIVE CELLS= 1225 NUMBER OF EQUATIONS=    1225

 SOLVING FOR HEAD 

 NO OUTPUT CONTROL FOR STRESS PERIOD    1   TIME STEP  781
 SOLVING FOR ZETA FOR LAYER     1 ZONE     2

     596 UPPER PART EQS.       591 LOWER PART EQS.    BAND WIDTH + 1 =   29
 STRESS PERIOD=  1 TIMESTEP=781 LAYER=  1 ZONE=  2 ACTIVE CELLS= 1187 NUMBER OF EQUATIONS=    1187
 SOLVING FOR ZETA FOR LAYER     2 ZONE     2

     613 UPPER PART EQS.       612 LOWER PART EQS.    BAND WIDTH + 1 =   34
 STRESS PERIOD=  1 TIMESTEP=781 LAYER=  2 ZONE=  2 ACTIVE CELLS= 1225 NUMBER OF EQUATIONS=    1225

 SOLVING FOR HEAD 

 NO OUTPUT CONTROL FOR STRESS PERIOD    1   TIME STEP  782
 SOLVING FOR ZETA FOR LAYER     1 ZONE     2

     596 UPPER PART EQS.       602 LOWER PART EQS.    BAND WIDTH + 1 =   35
 STRESS PERIOD=  1 TIMESTEP=782 LAYER=  1 ZONE=  2 ACTIVE CELLS= 1198 NUMBER OF EQUATIONS=    1198
 SOLVING FOR ZETA FOR LAYER     2 ZONE     2

     613 UPPER PART EQS.       612 LOWER PART EQS.    BAND WIDTH + 1 =   34
 STRESS PERIOD=  1 TIMESTEP=782 LAYER=  2 ZONE=  2 ACTIVE CELLS= 1225 NUMBER OF EQUATIONS=    1225

 SOLVING FOR HEAD 

 NO OUTPUT CONTROL FOR STRESS PERIOD    1   TIME STEP  783
 SOLVING FOR ZETA FOR LAYER     1 ZONE     2

     598 UPPER PART EQS.       579 LOWER PART EQS.    BAND WIDTH + 1 =   38
 STRESS PERIOD=  1 TIMESTEP=783 LAYER=  1 ZONE=  2 ACTIVE CELLS= 1177 NUMBER OF EQUATIONS=    1177
 SOLVING FOR ZETA FOR LAYER     2 ZONE     2

     613 UPPER PART EQS.       612 LOWER PART EQS.    BAND WIDTH + 1 =   34
 STRESS PERIOD=  1 TIMESTEP=783 LAYER=  2 ZONE=  2 ACTIVE CELLS= 1225 NUMBER OF EQUATIONS=    1225

 SOLVING FOR HEAD 

 NO OUTPUT CONTROL FOR STRESS PERIOD    1   TIME STEP  784
 SOLVING FOR ZETA FOR LAYER     1 ZONE     2

     599 UPPER PART EQS.       596 LOWER PART EQS.    BAND WIDTH + 1 =   26
 STRESS PERIOD=  1 TIMESTEP=784 LAYER=  1 ZONE=  2 ACTIVE CELLS= 1195 NUMBER OF EQUATIONS=    1195
 SOLVING FOR ZETA FOR LAYER     2 ZONE     2

     613 UPPER PART EQS.       612 LOWER PART EQS.    BAND WIDTH + 1 =   34
 STRESS PERIOD=  1 TIMESTEP=784 LAYER=  2 ZONE=  2 ACTIVE CELLS= 1225 NUMBER OF EQUATIONS=    1225

 SOLVING FOR HEAD 

 NO OUTPUT CONTROL FOR STRESS PERIOD    1   TIME STEP  785
 SOLVING FOR ZETA FOR LAYER     1 ZONE     2

     595 UPPER PART EQS.       592 LOWER PART EQS.    BAND WIDTH + 1 =   29
 STRESS PERIOD=  1 TIMESTEP=785 LAYER=  1 ZONE=  2 ACTIVE CELLS= 1187 NUMBER OF EQUATIONS=    1187
 SOLVING FOR ZETA FOR LAYER     2 ZONE     2

     613 UPPER PART EQS.       612 LOWER PART EQS.    BAND WIDTH + 1 =   34
 STRESS PERIOD=  1 TIMESTEP=785 LAYER=  2 ZONE=  2 ACTIVE CELLS= 1225 NUMBER OF EQUATIONS=    1225

 SOLVING FOR HEAD 

 NO OUTPUT CONTROL FOR STRESS PERIOD    1   TIME STEP  786
 SOLVING FOR ZETA FOR LAYER     1 ZONE     2

     578 UPPER PART EQS.       614 LOWER PART EQS.    BAND WIDTH + 1 =   56
 STRESS PERIOD=  1 TIMESTEP=786 LAYER=  1 ZONE=  2 ACTIVE CELLS= 1192 NUMBER OF EQUATIONS=    1192
 SOLVING FOR ZETA FOR LAYER     2 ZONE     2

     613 UPPER PART EQS.       612 LOWER PART EQS.    BAND WIDTH + 1 =   34
 STRESS PERIOD=  1 TIMESTEP=786 LAYER=  2 ZONE=  2 ACTIVE CELLS= 1225 NUMBER OF EQUATIONS=    1225

 SOLVING FOR HEAD 

 NO OUTPUT CONTROL FOR STRESS PERIOD    1   TIME STEP  787
 SOLVING FOR ZETA FOR LAYER     1 ZONE     2

     604 UPPER PART EQS.       594 LOWER PART EQS.    BAND WIDTH + 1 =   35
 STRESS PERIOD=  1 TIMESTEP=787 LAYER=  1 ZONE=  2 ACTIVE CELLS= 1198 NUMBER OF EQUATIONS=    1198
 SOLVING FOR ZETA FOR LAYER     2 ZONE     2

     613 UPPER PART EQS.       612 LOWER PART EQS.    BAND WIDTH + 1 =   34
 STRESS PERIOD=  1 TIMESTEP=787 LAYER=  2 ZONE=  2 ACTIVE CELLS= 1225 NUMBER OF EQUATIONS=    1225

 SOLVING FOR HEAD 

 NO OUTPUT CONTROL FOR STRESS PERIOD    1   TIME STEP  788
 SOLVING FOR ZETA FOR LAYER     1 ZONE     2

     598 UPPER PART EQS.       602 LOWER PART EQS.    BAND WIDTH + 1 =   29
 STRESS PERIOD=  1 TIMESTEP=788 LAYER=  1 ZONE=  2 ACTIVE CELLS= 1200 NUMBER OF EQUATIONS=    1200
 SOLVING FOR ZETA FOR LAYER     2 ZONE     2

     613 UPPER PART EQS.       612 LOWER PART EQS.    BAND WIDTH + 1 =   34
 STRESS PERIOD=  1 TIMESTEP=788 LAYER=  2 ZONE=  2 ACTIVE CELLS= 1225 NUMBER OF EQUATIONS=    1225

 SOLVING FOR HEAD 

 NO OUTPUT CONTROL FOR STRESS PERIOD    1   TIME STEP  789
 SOLVING FOR ZETA FOR LAYER     1 ZONE     2

     601 UPPER PART EQS.       588 LOWER PART EQS.    BAND WIDTH + 1 =   33
 STRESS PERIOD=  1 TIMESTEP=789 LAYER=  1 ZONE=  2 ACTIVE CELLS= 1189 NUMBER OF EQUATIONS=    1189
 SOLVING FOR ZETA FOR LAYER     2 ZONE     2

     613 UPPER PART EQS.       612 LOWER PART EQS.    BAND WIDTH + 1 =   34
 STRESS PERIOD=  1 TIMESTEP=789 LAYER=  2 ZONE=  2 ACTIVE CELLS= 1225 NUMBER OF EQUATIONS=    1225

 SOLVING FOR HEAD 

 NO OUTPUT CONTROL FOR STRESS PERIOD    1   TIME STEP  790
 SOLVING FOR ZETA FOR LAYER     1 ZONE     2

     607 UPPER PART EQS.       600 LOWER PART EQS.    BAND WIDTH + 1 =   27
 STRESS PERIOD=  1 TIMESTEP=790 LAYER=  1 ZONE=  2 ACTIVE CELLS= 1207 NUMBER OF EQUATIONS=    1207
 SOLVING FOR ZETA FOR LAYER     2 ZONE     2

     613 UPPER PART EQS.       612 LOWER PART EQS.    BAND WIDTH + 1 =   34
 STRESS PERIOD=  1 TIMESTEP=790 LAYER=  2 ZONE=  2 ACTIVE CELLS= 1225 NUMBER OF EQUATIONS=    1225

 SOLVING FOR HEAD 

 NO OUTPUT CONTROL FOR STRESS PERIOD    1   TIME STEP  791
 SOLVING FOR ZETA FOR LAYER     1 ZONE     2

     597 UPPER PART EQS.       592 LOWER PART EQS.    BAND WIDTH + 1 =   25
 STRESS PERIOD=  1 TIMESTEP=791 LAYER=  1 ZONE=  2 ACTIVE CELLS= 1189 NUMBER OF EQUATIONS=    1189
 SOLVING FOR ZETA FOR LAYER     2 ZONE     2

     613 UPPER PART EQS.       612 LOWER PART EQS.    BAND WIDTH + 1 =   34
 STRESS PERIOD=  1 TIMESTEP=791 LAYER=  2 ZONE=  2 ACTIVE CELLS= 1225 NUMBER OF EQUATIONS=    1225

 SOLVING FOR HEAD 

 NO OUTPUT CONTROL FOR STRESS PERIOD    1   TIME STEP  792
 SOLVING FOR ZETA FOR LAYER     1 ZONE     2

     596 UPPER PART EQS.       604 LOWER PART EQS.    BAND WIDTH + 1 =   34
 STRESS PERIOD=  1 TIMESTEP=792 LAYER=  1 ZONE=  2 ACTIVE CELLS= 1200 NUMBER OF EQUATIONS=    1200
 SOLVING FOR ZETA FOR LAYER     2 ZONE     2

     613 UPPER PART EQS.       612 LOWER PART EQS.    BAND WIDTH + 1 =   34
 STRESS PERIOD=  1 TIMESTEP=792 LAYER=  2 ZONE=  2 ACTIVE CELLS= 1225 NUMBER OF EQUATIONS=    1225

 SOLVING FOR HEAD 

 NO OUTPUT CONTROL FOR STRESS PERIOD    1   TIME STEP  793
 SOLVING FOR ZETA FOR LAYER     1 ZONE     2

     606 UPPER PART EQS.       586 LOWER PART EQS.    BAND WIDTH + 1 =   42
 STRESS PERIOD=  1 TIMESTEP=793 LAYER=  1 ZONE=  2 ACTIVE CELLS= 1192 NUMBER OF EQUATIONS=    1192
 SOLVING FOR ZETA FOR LAYER     2 ZONE     2

     613 UPPER PART EQS.       612 LOWER PART EQS.    BAND WIDTH + 1 =   34
 STRESS PERIOD=  1 TIMESTEP=793 LAYER=  2 ZONE=  2 ACTIVE CELLS= 1225 NUMBER OF EQUATIONS=    1225

 SOLVING FOR HEAD 

 NO OUTPUT CONTROL FOR STRESS PERIOD    1   TIME STEP  794
 SOLVING FOR ZETA FOR LAYER     1 ZONE     2

     601 UPPER PART EQS.       606 LOWER PART EQS.    BAND WIDTH + 1 =   32
 STRESS PERIOD=  1 TIMESTEP=794 LAYER=  1 ZONE=  2 ACTIVE CELLS= 1207 NUMBER OF EQUATIONS=    1207
 SOLVING FOR ZETA FOR LAYER     2 ZONE     2

     613 UPPER PART EQS.       612 LOWER PART EQS.    BAND WIDTH + 1 =   34
 STRESS PERIOD=  1 TIMESTEP=794 LAYER=  2 ZONE=  2 ACTIVE CELLS= 1225 NUMBER OF EQUATIONS=    1225

 SOLVING FOR HEAD 

 NO OUTPUT CONTROL FOR STRESS PERIOD    1   TIME STEP  795
 SOLVING FOR ZETA FOR LAYER     1 ZONE     2

     593 UPPER PART EQS.       591 LOWER PART EQS.    BAND WIDTH + 1 =   25
 STRESS PERIOD=  1 TIMESTEP=795 LAYER=  1 ZONE=  2 ACTIVE CELLS= 1184 NUMBER OF EQUATIONS=    1184
 SOLVING FOR ZETA FOR LAYER     2 ZONE     2

     613 UPPER PART EQS.       614 LOWER PART EQS.    BAND WIDTH + 1 =   34
 STRESS PERIOD=  1 TIMESTEP=795 LAYER=  2 ZONE=  2 ACTIVE CELLS= 1227 NUMBER OF EQUATIONS=    1227

 SOLVING FOR HEAD 

 NO OUTPUT CONTROL FOR STRESS PERIOD    1   TIME STEP  796
 SOLVING FOR ZETA FOR LAYER     1 ZONE     2

     600 UPPER PART EQS.       613 LOWER PART EQS.    BAND WIDTH + 1 =   35
 STRESS PERIOD=  1 TIMESTEP=796 LAYER=  1 ZONE=  2 ACTIVE CELLS= 1213 NUMBER OF EQUATIONS=    1213
 SOLVING FOR ZETA FOR LAYER     2 ZONE     2

     613 UPPER PART EQS.       614 LOWER PART EQS.    BAND WIDTH + 1 =   34
 STRESS PERIOD=  1 TIMESTEP=796 LAYER=  2 ZONE=  2 ACTIVE CELLS= 1227 NUMBER OF EQUATIONS=    1227

 SOLVING FOR HEAD 

 NO OUTPUT CONTROL FOR STRESS PERIOD    1   TIME STEP  797
 SOLVING FOR ZETA FOR LAYER     1 ZONE     2

     598 UPPER PART EQS.       592 LOWER PART EQS.    BAND WIDTH + 1 =   31
 STRESS PERIOD=  1 TIMESTEP=797 LAYER=  1 ZONE=  2 ACTIVE CELLS= 1190 NUMBER OF EQUATIONS=    1190
 SOLVING FOR ZETA FOR LAYER     2 ZONE     2

     613 UPPER PART EQS.       616 LOWER PART EQS.    BAND WIDTH + 1 =   34
 STRESS PERIOD=  1 TIMESTEP=797 LAYER=  2 ZONE=  2 ACTIVE CELLS= 1229 NUMBER OF EQUATIONS=    1229

 SOLVING FOR HEAD 

 NO OUTPUT CONTROL FOR STRESS PERIOD    1   TIME STEP  798
 SOLVING FOR ZETA FOR LAYER     1 ZONE     2

     588 UPPER PART EQS.       608 LOWER PART EQS.    BAND WIDTH + 1 =   41
 STRESS PERIOD=  1 TIMESTEP=798 LAYER=  1 ZONE=  2 ACTIVE CELLS= 1196 NUMBER OF EQUATIONS=    1196
 SOLVING FOR ZETA FOR LAYER     2 ZONE     2

     613 UPPER PART EQS.       616 LOWER PART EQS.    BAND WIDTH + 1 =   34
 STRESS PERIOD=  1 TIMESTEP=798 LAYER=  2 ZONE=  2 ACTIVE CELLS= 1229 NUMBER OF EQUATIONS=    1229

 SOLVING FOR HEAD 

 NO OUTPUT CONTROL FOR STRESS PERIOD    1   TIME STEP  799
 SOLVING FOR ZETA FOR LAYER     1 ZONE     2

     603 UPPER PART EQS.       580 LOWER PART EQS.    BAND WIDTH + 1 =   43
 STRESS PERIOD=  1 TIMESTEP=799 LAYER=  1 ZONE=  2 ACTIVE CELLS= 1183 NUMBER OF EQUATIONS=    1183
 SOLVING FOR ZETA FOR LAYER     2 ZONE     2

     613 UPPER PART EQS.       616 LOWER PART EQS.    BAND WIDTH + 1 =   34
 STRESS PERIOD=  1 TIMESTEP=799 LAYER=  2 ZONE=  2 ACTIVE CELLS= 1229 NUMBER OF EQUATIONS=    1229

 SOLVING FOR HEAD 

 OUTPUT CONTROL FOR STRESS PERIOD    1   TIME STEP  800
    PRINT BUDGET
    SAVE HEAD FOR ALL LAYERS
 SOLVING FOR ZETA FOR LAYER     1 ZONE     2

     594 UPPER PART EQS.       610 LOWER PART EQS.    BAND WIDTH + 1 =   37
 STRESS PERIOD=  1 TIMESTEP=800 LAYER=  1 ZONE=  2 ACTIVE CELLS= 1204 NUMBER OF EQUATIONS=    1204
 SOLVING FOR ZETA FOR LAYER     2 ZONE     2

     613 UPPER PART EQS.       620 LOWER PART EQS.    BAND WIDTH + 1 =   34
 STRESS PERIOD=  1 TIMESTEP=800 LAYER=  2 ZONE=  2 ACTIVE CELLS= 1233 NUMBER OF EQUATIONS=    1233
 UBUDSV SAVING "      ZETASRF  1" ON UNIT 55 AT TIME STEP800, STRESS PERIOD    1


                      VOLUMETRIC SWI ZONE BUDGET FOR ENTIRE MODEL
                     AT END OF TIME STEP  800 IN STRESS PERIOD   1
                                      ZONE     1
  -----------------------------------------------------------------------------------

        CUMULATIVE VOLUMES      L**3       RATES FOR THIS TIME STEP      L**3/T
        ------------------                 ------------------------

              IN:                                      IN:
              ---                                      ---
             BOUNDARIES =    98238224.0000            BOUNDARIES =        1681.0000
          CONSTANT HEAD =           0.0000         CONSTANT HEAD =           0.0000
            ZONE CHANGE =      377904.9062           ZONE CHANGE =           4.6623
       ZONE CHG TIP/TOE =      343978.5625      ZONE CHG TIP/TOE =           3.8148
            ZONE MIXING =           0.0000           ZONE MIXING =           0.0000

               TOTAL IN =    98960104.0000              TOTAL IN =        1689.4771

             OUT:                                     OUT:
             ----                                     ----
             BOUNDARIES =    80756704.0000            BOUNDARIES =        1662.5221
          CONSTANT HEAD =           0.0000         CONSTANT HEAD =           0.0000
            ZONE CHANGE =    18587314.0000           ZONE CHANGE =          23.2292
       ZONE CHG TIP/TOE =      353893.8750      ZONE CHG TIP/TOE =           3.7116
            ZONE MIXING =           0.0000           ZONE MIXING =           0.0000

              TOTAL OUT =    99697912.0000             TOTAL OUT =        1689.4629

               IN - OUT =     -737808.0000              IN - OUT =       1.4160E-02

    PERCENT DISCREPANCY =          -0.74     PERCENT DISCREPANCY =           0.00



                      VOLUMETRIC SWI ZONE BUDGET FOR ENTIRE MODEL
                     AT END OF TIME STEP  800 IN STRESS PERIOD   1
                                      ZONE     2
  -----------------------------------------------------------------------------------

        CUMULATIVE VOLUMES      L**3       RATES FOR THIS TIME STEP      L**3/T
        ------------------                 ------------------------

              IN:                                      IN:
              ---                                      ---
             BOUNDARIES =           0.0000            BOUNDARIES =           0.0000
          CONSTANT HEAD =           0.0000         CONSTANT HEAD =           0.0000
            ZONE CHANGE =    18554702.0000           ZONE CHANGE =          22.5301
       ZONE CHG TIP/TOE =     1093834.6250      ZONE CHG TIP/TOE =           3.8163
            ZONE MIXING =           0.0000           ZONE MIXING =           0.0000

               TOTAL IN =    19648536.0000              TOTAL IN =          26.3464

             OUT:                                     OUT:
             ----                                     ----
             BOUNDARIES =    17480926.0000            BOUNDARIES =          18.4779
          CONSTANT HEAD =           0.0000         CONSTANT HEAD =           0.0000
            ZONE CHANGE =     1117845.8750           ZONE CHANGE =           4.7670
       ZONE CHG TIP/TOE =      311364.2188      ZONE CHG TIP/TOE =           3.1156
            ZONE MIXING =           0.0000           ZONE MIXING =           0.0000

              TOTAL OUT =    18910136.0000             TOTAL OUT =          26.3606

               IN - OUT =      738400.0000              IN - OUT =      -1.4196E-02

    PERCENT DISCREPANCY =           3.83     PERCENT DISCREPANCY =          -0.05


 HEAD WILL BE SAVED ON UNIT   51 AT END OF TIME STEP  800, STRESS PERIOD    1
1
  VOLUMETRIC BUDGET FOR ENTIRE MODEL AT END OF TIME STEP  800, STRESS PERIOD   1
  ------------------------------------------------------------------------------

     CUMULATIVE VOLUMES      L**3       RATES FOR THIS TIME STEP      L**3/T
     ------------------                 ------------------------

           IN:                                      IN:
           ---                                      ---
             STORAGE =           0.0000               STORAGE =           0.0000
       CONSTANT HEAD =           0.0000         CONSTANT HEAD =           0.0000
               WELLS =           0.0000                 WELLS =           0.0000
     HEAD DEP BOUNDS =           0.0000       HEAD DEP BOUNDS =           0.0000
            RECHARGE =    98238224.0000              RECHARGE =        1681.0000
          SWIADDTOCH =           0.0000            SWIADDTOCH =           0.0000

            TOTAL IN =    98238224.0000              TOTAL IN =        1681.0000

          OUT:                                     OUT:
          ----                                     ----
             STORAGE =           0.0000               STORAGE =           0.0000
       CONSTANT HEAD =           0.0000         CONSTANT HEAD =           0.0000
               WELLS =           0.0000                 WELLS =           0.0000
     HEAD DEP BOUNDS =    98238224.0000       HEAD DEP BOUNDS =        1681.0000
            RECHARGE =           0.0000              RECHARGE =           0.0000
          SWIADDTOCH =           0.0000            SWIADDTOCH =           0.0000

           TOTAL OUT =    98238224.0000             TOTAL OUT =        1681.0000

            IN - OUT =           0.0000              IN - OUT =           0.0000

 PERCENT DISCREPANCY =           0.00     PERCENT DISCREPANCY =           0.00






         TIME SUMMARY AT END OF TIME STEP  800 IN STRESS PERIOD    1
                    SECONDS     MINUTES      HOURS       DAYS        YEARS
                    -----------------------------------------------------------
   TIME STEP LENGTH 6.31152E+06 1.05192E+05  1753.2      73.050     0.20000    
 STRESS PERIOD TIME 5.04925E+09 8.41542E+07 1.40257E+06  58440.      160.00    
         TOTAL TIME 5.04925E+09 8.41542E+07 1.40257E+06  58440.      160.00    
1

 SOLVING FOR HEAD 

 NO OUTPUT CONTROL FOR STRESS PERIOD    1   TIME STEP  801
 SOLVING FOR ZETA FOR LAYER     1 ZONE     2

     598 UPPER PART EQS.       592 LOWER PART EQS.    BAND WIDTH + 1 =   27
 STRESS PERIOD=  1 TIMESTEP=801 LAYER=  1 ZONE=  2 ACTIVE CELLS= 1190 NUMBER OF EQUATIONS=    1190
 SOLVING FOR ZETA FOR LAYER     2 ZONE     2

     613 UPPER PART EQS.       620 LOWER PART EQS.    BAND WIDTH + 1 =   34
 STRESS PERIOD=  1 TIMESTEP=801 LAYER=  2 ZONE=  2 ACTIVE CELLS= 1233 NUMBER OF EQUATIONS=    1233

 SOLVING FOR HEAD 

 NO OUTPUT CONTROL FOR STRESS PERIOD    1   TIME STEP  802
 SOLVING FOR ZETA FOR LAYER     1 ZONE     2

     608 UPPER PART EQS.       612 LOWER PART EQS.    BAND WIDTH + 1 =   30
 STRESS PERIOD=  1 TIMESTEP=802 LAYER=  1 ZONE=  2 ACTIVE CELLS= 1220 NUMBER OF EQUATIONS=    1220
 SOLVING FOR ZETA FOR LAYER     2 ZONE     2

     613 UPPER PART EQS.       620 LOWER PART EQS.    BAND WIDTH + 1 =   34
 STRESS PERIOD=  1 TIMESTEP=802 LAYER=  2 ZONE=  2 ACTIVE CELLS= 1233 NUMBER OF EQUATIONS=    1233

 SOLVING FOR HEAD 

 NO OUTPUT CONTROL FOR STRESS PERIOD    1   TIME STEP  803
 SOLVING FOR ZETA FOR LAYER     1 ZONE     2

     604 UPPER PART EQS.       594 LOWER PART EQS.    BAND WIDTH + 1 =   34
 STRESS PERIOD=  1 TIMESTEP=803 LAYER=  1 ZONE=  2 ACTIVE CELLS= 1198 NUMBER OF EQUATIONS=    1198
 SOLVING FOR ZETA FOR LAYER     2 ZONE     2

     613 UPPER PART EQS.       620 LOWER PART EQS.    BAND WIDTH + 1 =   34
 STRESS PERIOD=  1 TIMESTEP=803 LAYER=  2 ZONE=  2 ACTIVE CELLS= 1233 NUMBER OF EQUATIONS=    1233

 SOLVING FOR HEAD 

 NO OUTPUT CONTROL FOR STRESS PERIOD    1   TIME STEP  804
 SOLVING FOR ZETA FOR LAYER     1 ZONE     2

     589 UPPER PART EQS.       606 LOWER PART EQS.    BAND WIDTH + 1 =   44
 STRESS PERIOD=  1 TIMESTEP=804 LAYER=  1 ZONE=  2 ACTIVE CELLS= 1195 NUMBER OF EQUATIONS=    1195
 SOLVING FOR ZETA FOR LAYER     2 ZONE     2

     613 UPPER PART EQS.       620 LOWER PART EQS.    BAND WIDTH + 1 =   34
 STRESS PERIOD=  1 TIMESTEP=804 LAYER=  2 ZONE=  2 ACTIVE CELLS= 1233 NUMBER OF EQUATIONS=    1233

 SOLVING FOR HEAD 

 NO OUTPUT CONTROL FOR STRESS PERIOD    1   TIME STEP  805
 SOLVING FOR ZETA FOR LAYER     1 ZONE     2

     603 UPPER PART EQS.       586 LOWER PART EQS.    BAND WIDTH + 1 =   38
 STRESS PERIOD=  1 TIMESTEP=805 LAYER=  1 ZONE=  2 ACTIVE CELLS= 1189 NUMBER OF EQUATIONS=    1189
 SOLVING FOR ZETA FOR LAYER     2 ZONE     2

     613 UPPER PART EQS.       620 LOWER PART EQS.    BAND WIDTH + 1 =   34
 STRESS PERIOD=  1 TIMESTEP=805 LAYER=  2 ZONE=  2 ACTIVE CELLS= 1233 NUMBER OF EQUATIONS=    1233

 SOLVING FOR HEAD 

 NO OUTPUT CONTROL FOR STRESS PERIOD    1   TIME STEP  806
 SOLVING FOR ZETA FOR LAYER     1 ZONE     2

     598 UPPER PART EQS.       609 LOWER PART EQS.    BAND WIDTH + 1 =   40
 STRESS PERIOD=  1 TIMESTEP=806 LAYER=  1 ZONE=  2 ACTIVE CELLS= 1207 NUMBER OF EQUATIONS=    1207
 SOLVING FOR ZETA FOR LAYER     2 ZONE     2

     613 UPPER PART EQS.       620 LOWER PART EQS.    BAND WIDTH + 1 =   34
 STRESS PERIOD=  1 TIMESTEP=806 LAYER=  2 ZONE=  2 ACTIVE CELLS= 1233 NUMBER OF EQUATIONS=    1233

 SOLVING FOR HEAD 

 NO OUTPUT CONTROL FOR STRESS PERIOD    1   TIME STEP  807
 SOLVING FOR ZETA FOR LAYER     1 ZONE     2

     602 UPPER PART EQS.       590 LOWER PART EQS.    BAND WIDTH + 1 =   34
 STRESS PERIOD=  1 TIMESTEP=807 LAYER=  1 ZONE=  2 ACTIVE CELLS= 1192 NUMBER OF EQUATIONS=    1192
 SOLVING FOR ZETA FOR LAYER     2 ZONE     2

     613 UPPER PART EQS.       620 LOWER PART EQS.    BAND WIDTH + 1 =   34
 STRESS PERIOD=  1 TIMESTEP=807 LAYER=  2 ZONE=  2 ACTIVE CELLS= 1233 NUMBER OF EQUATIONS=    1233

 SOLVING FOR HEAD 

 NO OUTPUT CONTROL FOR STRESS PERIOD    1   TIME STEP  808
 SOLVING FOR ZETA FOR LAYER     1 ZONE     2

     604 UPPER PART EQS.       604 LOWER PART EQS.    BAND WIDTH + 1 =   26
 STRESS PERIOD=  1 TIMESTEP=808 LAYER=  1 ZONE=  2 ACTIVE CELLS= 1208 NUMBER OF EQUATIONS=    1208
 SOLVING FOR ZETA FOR LAYER     2 ZONE     2

     613 UPPER PART EQS.       620 LOWER PART EQS.    BAND WIDTH + 1 =   34
 STRESS PERIOD=  1 TIMESTEP=808 LAYER=  2 ZONE=  2 ACTIVE CELLS= 1233 NUMBER OF EQUATIONS=    1233

 SOLVING FOR HEAD 

 NO OUTPUT CONTROL FOR STRESS PERIOD    1   TIME STEP  809
 SOLVING FOR ZETA FOR LAYER     1 ZONE     2

     601 UPPER PART EQS.       589 LOWER PART EQS.    BAND WIDTH + 1 =   36
 STRESS PERIOD=  1 TIMESTEP=809 LAYER=  1 ZONE=  2 ACTIVE CELLS= 1190 NUMBER OF EQUATIONS=    1190
 SOLVING FOR ZETA FOR LAYER     2 ZONE     2

     613 UPPER PART EQS.       620 LOWER PART EQS.    BAND WIDTH + 1 =   34
 STRESS PERIOD=  1 TIMESTEP=809 LAYER=  2 ZONE=  2 ACTIVE CELLS= 1233 NUMBER OF EQUATIONS=    1233

 SOLVING FOR HEAD 

 NO OUTPUT CONTROL FOR STRESS PERIOD    1   TIME STEP  810
 SOLVING FOR ZETA FOR LAYER     1 ZONE     2

     585 UPPER PART EQS.       612 LOWER PART EQS.    BAND WIDTH + 1 =   48
 STRESS PERIOD=  1 TIMESTEP=810 LAYER=  1 ZONE=  2 ACTIVE CELLS= 1197 NUMBER OF EQUATIONS=    1197
 SOLVING FOR ZETA FOR LAYER     2 ZONE     2

     613 UPPER PART EQS.       620 LOWER PART EQS.    BAND WIDTH + 1 =   34
 STRESS PERIOD=  1 TIMESTEP=810 LAYER=  2 ZONE=  2 ACTIVE CELLS= 1233 NUMBER OF EQUATIONS=    1233

 SOLVING FOR HEAD 

 NO OUTPUT CONTROL FOR STRESS PERIOD    1   TIME STEP  811
 SOLVING FOR ZETA FOR LAYER     1 ZONE     2

     598 UPPER PART EQS.       590 LOWER PART EQS.    BAND WIDTH + 1 =   32
 STRESS PERIOD=  1 TIMESTEP=811 LAYER=  1 ZONE=  2 ACTIVE CELLS= 1188 NUMBER OF EQUATIONS=    1188
 SOLVING FOR ZETA FOR LAYER     2 ZONE     2

     613 UPPER PART EQS.       620 LOWER PART EQS.    BAND WIDTH + 1 =   34
 STRESS PERIOD=  1 TIMESTEP=811 LAYER=  2 ZONE=  2 ACTIVE CELLS= 1233 NUMBER OF EQUATIONS=    1233

 SOLVING FOR HEAD 

 NO OUTPUT CONTROL FOR STRESS PERIOD    1   TIME STEP  812
 SOLVING FOR ZETA FOR LAYER     1 ZONE     2

     605 UPPER PART EQS.       612 LOWER PART EQS.    BAND WIDTH + 1 =   34
 STRESS PERIOD=  1 TIMESTEP=812 LAYER=  1 ZONE=  2 ACTIVE CELLS= 1217 NUMBER OF EQUATIONS=    1217
 SOLVING FOR ZETA FOR LAYER     2 ZONE     2

     613 UPPER PART EQS.       620 LOWER PART EQS.    BAND WIDTH + 1 =   34
 STRESS PERIOD=  1 TIMESTEP=812 LAYER=  2 ZONE=  2 ACTIVE CELLS= 1233 NUMBER OF EQUATIONS=    1233

 SOLVING FOR HEAD 

 NO OUTPUT CONTROL FOR STRESS PERIOD    1   TIME STEP  813
 SOLVING FOR ZETA FOR LAYER     1 ZONE     2

     596 UPPER PART EQS.       586 LOWER PART EQS.    BAND WIDTH + 1 =   30
 STRESS PERIOD=  1 TIMESTEP=813 LAYER=  1 ZONE=  2 ACTIVE CELLS= 1182 NUMBER OF EQUATIONS=    1182
 SOLVING FOR ZETA FOR LAYER     2 ZONE     2

     613 UPPER PART EQS.       620 LOWER PART EQS.    BAND WIDTH + 1 =   34
 STRESS PERIOD=  1 TIMESTEP=813 LAYER=  2 ZONE=  2 ACTIVE CELLS= 1233 NUMBER OF EQUATIONS=    1233

 SOLVING FOR HEAD 

 NO OUTPUT CONTROL FOR STRESS PERIOD    1   TIME STEP  814
 SOLVING FOR ZETA FOR LAYER     1 ZONE     2

     605 UPPER PART EQS.       604 LOWER PART EQS.    BAND WIDTH + 1 =   27
 STRESS PERIOD=  1 TIMESTEP=814 LAYER=  1 ZONE=  2 ACTIVE CELLS= 1209 NUMBER OF EQUATIONS=    1209
 SOLVING FOR ZETA FOR LAYER     2 ZONE     2

     613 UPPER PART EQS.       620 LOWER PART EQS.    BAND WIDTH + 1 =   34
 STRESS PERIOD=  1 TIMESTEP=814 LAYER=  2 ZONE=  2 ACTIVE CELLS= 1233 NUMBER OF EQUATIONS=    1233

 SOLVING FOR HEAD 

 NO OUTPUT CONTROL FOR STRESS PERIOD    1   TIME STEP  815
 SOLVING FOR ZETA FOR LAYER     1 ZONE     2

     605 UPPER PART EQS.       590 LOWER PART EQS.    BAND WIDTH + 1 =   35
 STRESS PERIOD=  1 TIMESTEP=815 LAYER=  1 ZONE=  2 ACTIVE CELLS= 1195 NUMBER OF EQUATIONS=    1195
 SOLVING FOR ZETA FOR LAYER     2 ZONE     2

     613 UPPER PART EQS.       620 LOWER PART EQS.    BAND WIDTH + 1 =   34
 STRESS PERIOD=  1 TIMESTEP=815 LAYER=  2 ZONE=  2 ACTIVE CELLS= 1233 NUMBER OF EQUATIONS=    1233

 SOLVING FOR HEAD 

 NO OUTPUT CONTROL FOR STRESS PERIOD    1   TIME STEP  816
 SOLVING FOR ZETA FOR LAYER     1 ZONE     2

     590 UPPER PART EQS.       614 LOWER PART EQS.    BAND WIDTH + 1 =   48
 STRESS PERIOD=  1 TIMESTEP=816 LAYER=  1 ZONE=  2 ACTIVE CELLS= 1204 NUMBER OF EQUATIONS=    1204
 SOLVING FOR ZETA FOR LAYER     2 ZONE     2

     613 UPPER PART EQS.       620 LOWER PART EQS.    BAND WIDTH + 1 =   34
 STRESS PERIOD=  1 TIMESTEP=816 LAYER=  2 ZONE=  2 ACTIVE CELLS= 1233 NUMBER OF EQUATIONS=    1233

 SOLVING FOR HEAD 

 NO OUTPUT CONTROL FOR STRESS PERIOD    1   TIME STEP  817
 SOLVING FOR ZETA FOR LAYER     1 ZONE     2

     610 UPPER PART EQS.       592 LOWER PART EQS.    BAND WIDTH + 1 =   41
 STRESS PERIOD=  1 TIMESTEP=817 LAYER=  1 ZONE=  2 ACTIVE CELLS= 1202 NUMBER OF EQUATIONS=    1202
 SOLVING FOR ZETA FOR LAYER     2 ZONE     2

     613 UPPER PART EQS.       620 LOWER PART EQS.    BAND WIDTH + 1 =   34
 STRESS PERIOD=  1 TIMESTEP=817 LAYER=  2 ZONE=  2 ACTIVE CELLS= 1233 NUMBER OF EQUATIONS=    1233

 SOLVING FOR HEAD 

 NO OUTPUT CONTROL FOR STRESS PERIOD    1   TIME STEP  818
 SOLVING FOR ZETA FOR LAYER     1 ZONE     2

     604 UPPER PART EQS.       610 LOWER PART EQS.    BAND WIDTH + 1 =   32
 STRESS PERIOD=  1 TIMESTEP=818 LAYER=  1 ZONE=  2 ACTIVE CELLS= 1214 NUMBER OF EQUATIONS=    1214
 SOLVING FOR ZETA FOR LAYER     2 ZONE     2

     613 UPPER PART EQS.       620 LOWER PART EQS.    BAND WIDTH + 1 =   34
 STRESS PERIOD=  1 TIMESTEP=818 LAYER=  2 ZONE=  2 ACTIVE CELLS= 1233 NUMBER OF EQUATIONS=    1233

 SOLVING FOR HEAD 

 NO OUTPUT CONTROL FOR STRESS PERIOD    1   TIME STEP  819
 SOLVING FOR ZETA FOR LAYER     1 ZONE     2

     595 UPPER PART EQS.       586 LOWER PART EQS.    BAND WIDTH + 1 =   32
 STRESS PERIOD=  1 TIMESTEP=819 LAYER=  1 ZONE=  2 ACTIVE CELLS= 1181 NUMBER OF EQUATIONS=    1181
 SOLVING FOR ZETA FOR LAYER     2 ZONE     2

     613 UPPER PART EQS.       620 LOWER PART EQS.    BAND WIDTH + 1 =   34
 STRESS PERIOD=  1 TIMESTEP=819 LAYER=  2 ZONE=  2 ACTIVE CELLS= 1233 NUMBER OF EQUATIONS=    1233

 SOLVING FOR HEAD 

 NO OUTPUT CONTROL FOR STRESS PERIOD    1   TIME STEP  820
 SOLVING FOR ZETA FOR LAYER     1 ZONE     2

     597 UPPER PART EQS.       608 LOWER PART EQS.    BAND WIDTH + 1 =   33
 STRESS PERIOD=  1 TIMESTEP=820 LAYER=  1 ZONE=  2 ACTIVE CELLS= 1205 NUMBER OF EQUATIONS=    1205
 SOLVING FOR ZETA FOR LAYER     2 ZONE     2

     613 UPPER PART EQS.       620 LOWER PART EQS.    BAND WIDTH + 1 =   34
 STRESS PERIOD=  1 TIMESTEP=820 LAYER=  2 ZONE=  2 ACTIVE CELLS= 1233 NUMBER OF EQUATIONS=    1233

 SOLVING FOR HEAD 

 NO OUTPUT CONTROL FOR STRESS PERIOD    1   TIME STEP  821
 SOLVING FOR ZETA FOR LAYER     1 ZONE     2

     592 UPPER PART EQS.       598 LOWER PART EQS.    BAND WIDTH + 1 =   28
 STRESS PERIOD=  1 TIMESTEP=821 LAYER=  1 ZONE=  2 ACTIVE CELLS= 1190 NUMBER OF EQUATIONS=    1190
 SOLVING FOR ZETA FOR LAYER     2 ZONE     2

     613 UPPER PART EQS.       620 LOWER PART EQS.    BAND WIDTH + 1 =   34
 STRESS PERIOD=  1 TIMESTEP=821 LAYER=  2 ZONE=  2 ACTIVE CELLS= 1233 NUMBER OF EQUATIONS=    1233

 SOLVING FOR HEAD 

 NO OUTPUT CONTROL FOR STRESS PERIOD    1   TIME STEP  822
 SOLVING FOR ZETA FOR LAYER     1 ZONE     2

     596 UPPER PART EQS.       616 LOWER PART EQS.    BAND WIDTH + 1 =   43
 STRESS PERIOD=  1 TIMESTEP=822 LAYER=  1 ZONE=  2 ACTIVE CELLS= 1212 NUMBER OF EQUATIONS=    1212
 SOLVING FOR ZETA FOR LAYER     2 ZONE     2

     613 UPPER PART EQS.       620 LOWER PART EQS.    BAND WIDTH + 1 =   34
 STRESS PERIOD=  1 TIMESTEP=822 LAYER=  2 ZONE=  2 ACTIVE CELLS= 1233 NUMBER OF EQUATIONS=    1233

 SOLVING FOR HEAD 

 NO OUTPUT CONTROL FOR STRESS PERIOD    1   TIME STEP  823
 SOLVING FOR ZETA FOR LAYER     1 ZONE     2

     608 UPPER PART EQS.       596 LOWER PART EQS.    BAND WIDTH + 1 =   39
 STRESS PERIOD=  1 TIMESTEP=823 LAYER=  1 ZONE=  2 ACTIVE CELLS= 1204 NUMBER OF EQUATIONS=    1204
 SOLVING FOR ZETA FOR LAYER     2 ZONE     2

     613 UPPER PART EQS.       620 LOWER PART EQS.    BAND WIDTH + 1 =   34
 STRESS PERIOD=  1 TIMESTEP=823 LAYER=  2 ZONE=  2 ACTIVE CELLS= 1233 NUMBER OF EQUATIONS=    1233

 SOLVING FOR HEAD 

 NO OUTPUT CONTROL FOR STRESS PERIOD    1   TIME STEP  824
 SOLVING FOR ZETA FOR LAYER     1 ZONE     2

     602 UPPER PART EQS.       616 LOWER PART EQS.    BAND WIDTH + 1 =   37
 STRESS PERIOD=  1 TIMESTEP=824 LAYER=  1 ZONE=  2 ACTIVE CELLS= 1218 NUMBER OF EQUATIONS=    1218
 SOLVING FOR ZETA FOR LAYER     2 ZONE     2

     613 UPPER PART EQS.       620 LOWER PART EQS.    BAND WIDTH + 1 =   34
 STRESS PERIOD=  1 TIMESTEP=824 LAYER=  2 ZONE=  2 ACTIVE CELLS= 1233 NUMBER OF EQUATIONS=    1233

 SOLVING FOR HEAD 

 NO OUTPUT CONTROL FOR STRESS PERIOD    1   TIME STEP  825
 SOLVING FOR ZETA FOR LAYER     1 ZONE     2

     601 UPPER PART EQS.       592 LOWER PART EQS.    BAND WIDTH + 1 =   30
 STRESS PERIOD=  1 TIMESTEP=825 LAYER=  1 ZONE=  2 ACTIVE CELLS= 1193 NUMBER OF EQUATIONS=    1193
 SOLVING FOR ZETA FOR LAYER     2 ZONE     2

     613 UPPER PART EQS.       620 LOWER PART EQS.    BAND WIDTH + 1 =   34
 STRESS PERIOD=  1 TIMESTEP=825 LAYER=  2 ZONE=  2 ACTIVE CELLS= 1233 NUMBER OF EQUATIONS=    1233

 SOLVING FOR HEAD 

 NO OUTPUT CONTROL FOR STRESS PERIOD    1   TIME STEP  826
 SOLVING FOR ZETA FOR LAYER     1 ZONE     2

     600 UPPER PART EQS.       613 LOWER PART EQS.    BAND WIDTH + 1 =   38
 STRESS PERIOD=  1 TIMESTEP=826 LAYER=  1 ZONE=  2 ACTIVE CELLS= 1213 NUMBER OF EQUATIONS=    1213
 SOLVING FOR ZETA FOR LAYER     2 ZONE     2

     613 UPPER PART EQS.       620 LOWER PART EQS.    BAND WIDTH + 1 =   34
 STRESS PERIOD=  1 TIMESTEP=826 LAYER=  2 ZONE=  2 ACTIVE CELLS= 1233 NUMBER OF EQUATIONS=    1233

 SOLVING FOR HEAD 

 NO OUTPUT CONTROL FOR STRESS PERIOD    1   TIME STEP  827
 SOLVING FOR ZETA FOR LAYER     1 ZONE     2

     610 UPPER PART EQS.       593 LOWER PART EQS.    BAND WIDTH + 1 =   39
 STRESS PERIOD=  1 TIMESTEP=827 LAYER=  1 ZONE=  2 ACTIVE CELLS= 1203 NUMBER OF EQUATIONS=    1203
 SOLVING FOR ZETA FOR LAYER     2 ZONE     2

     613 UPPER PART EQS.       616 LOWER PART EQS.    BAND WIDTH + 1 =   34
 STRESS PERIOD=  1 TIMESTEP=827 LAYER=  2 ZONE=  2 ACTIVE CELLS= 1229 NUMBER OF EQUATIONS=    1229

 SOLVING FOR HEAD 

 NO OUTPUT CONTROL FOR STRESS PERIOD    1   TIME STEP  828
 SOLVING FOR ZETA FOR LAYER     1 ZONE     2

     590 UPPER PART EQS.       610 LOWER PART EQS.    BAND WIDTH + 1 =   44
 STRESS PERIOD=  1 TIMESTEP=828 LAYER=  1 ZONE=  2 ACTIVE CELLS= 1200 NUMBER OF EQUATIONS=    1200
 SOLVING FOR ZETA FOR LAYER     2 ZONE     2

     613 UPPER PART EQS.       620 LOWER PART EQS.    BAND WIDTH + 1 =   34
 STRESS PERIOD=  1 TIMESTEP=828 LAYER=  2 ZONE=  2 ACTIVE CELLS= 1233 NUMBER OF EQUATIONS=    1233

 SOLVING FOR HEAD 

 NO OUTPUT CONTROL FOR STRESS PERIOD    1   TIME STEP  829
 SOLVING FOR ZETA FOR LAYER     1 ZONE     2

     601 UPPER PART EQS.       588 LOWER PART EQS.    BAND WIDTH + 1 =   38
 STRESS PERIOD=  1 TIMESTEP=829 LAYER=  1 ZONE=  2 ACTIVE CELLS= 1189 NUMBER OF EQUATIONS=    1189
 SOLVING FOR ZETA FOR LAYER     2 ZONE     2

     613 UPPER PART EQS.       618 LOWER PART EQS.    BAND WIDTH + 1 =   34
 STRESS PERIOD=  1 TIMESTEP=829 LAYER=  2 ZONE=  2 ACTIVE CELLS= 1231 NUMBER OF EQUATIONS=    1231

 SOLVING FOR HEAD 

 NO OUTPUT CONTROL FOR STRESS PERIOD    1   TIME STEP  830
 SOLVING FOR ZETA FOR LAYER     1 ZONE     2

     593 UPPER PART EQS.       610 LOWER PART EQS.    BAND WIDTH + 1 =   40
 STRESS PERIOD=  1 TIMESTEP=830 LAYER=  1 ZONE=  2 ACTIVE CELLS= 1203 NUMBER OF EQUATIONS=    1203
 SOLVING FOR ZETA FOR LAYER     2 ZONE     2

     613 UPPER PART EQS.       620 LOWER PART EQS.    BAND WIDTH + 1 =   34
 STRESS PERIOD=  1 TIMESTEP=830 LAYER=  2 ZONE=  2 ACTIVE CELLS= 1233 NUMBER OF EQUATIONS=    1233

 SOLVING FOR HEAD 

 NO OUTPUT CONTROL FOR STRESS PERIOD    1   TIME STEP  831
 SOLVING FOR ZETA FOR LAYER     1 ZONE     2

     596 UPPER PART EQS.       592 LOWER PART EQS.    BAND WIDTH + 1 =   25
 STRESS PERIOD=  1 TIMESTEP=831 LAYER=  1 ZONE=  2 ACTIVE CELLS= 1188 NUMBER OF EQUATIONS=    1188
 SOLVING FOR ZETA FOR LAYER     2 ZONE     2

     613 UPPER PART EQS.       620 LOWER PART EQS.    BAND WIDTH + 1 =   34
 STRESS PERIOD=  1 TIMESTEP=831 LAYER=  2 ZONE=  2 ACTIVE CELLS= 1233 NUMBER OF EQUATIONS=    1233

 SOLVING FOR HEAD 

 NO OUTPUT CONTROL FOR STRESS PERIOD    1   TIME STEP  832
 SOLVING FOR ZETA FOR LAYER     1 ZONE     2

     610 UPPER PART EQS.       610 LOWER PART EQS.    BAND WIDTH + 1 =   28
 STRESS PERIOD=  1 TIMESTEP=832 LAYER=  1 ZONE=  2 ACTIVE CELLS= 1220 NUMBER OF EQUATIONS=    1220
 SOLVING FOR ZETA FOR LAYER     2 ZONE     2

     613 UPPER PART EQS.       618 LOWER PART EQS.    BAND WIDTH + 1 =   34
 STRESS PERIOD=  1 TIMESTEP=832 LAYER=  2 ZONE=  2 ACTIVE CELLS= 1231 NUMBER OF EQUATIONS=    1231

 SOLVING FOR HEAD 

 NO OUTPUT CONTROL FOR STRESS PERIOD    1   TIME STEP  833
 SOLVING FOR ZETA FOR LAYER     1 ZONE     2

     612 UPPER PART EQS.       590 LOWER PART EQS.    BAND WIDTH + 1 =   42
 STRESS PERIOD=  1 TIMESTEP=833 LAYER=  1 ZONE=  2 ACTIVE CELLS= 1202 NUMBER OF EQUATIONS=    1202
 SOLVING FOR ZETA FOR LAYER     2 ZONE     2

     613 UPPER PART EQS.       620 LOWER PART EQS.    BAND WIDTH + 1 =   34
 STRESS PERIOD=  1 TIMESTEP=833 LAYER=  2 ZONE=  2 ACTIVE CELLS= 1233 NUMBER OF EQUATIONS=    1233

 SOLVING FOR HEAD 

 NO OUTPUT CONTROL FOR STRESS PERIOD    1   TIME STEP  834
 SOLVING FOR ZETA FOR LAYER     1 ZONE     2

     595 UPPER PART EQS.       608 LOWER PART EQS.    BAND WIDTH + 1 =   39
 STRESS PERIOD=  1 TIMESTEP=834 LAYER=  1 ZONE=  2 ACTIVE CELLS= 1203 NUMBER OF EQUATIONS=    1203
 SOLVING FOR ZETA FOR LAYER     2 ZONE     2

     613 UPPER PART EQS.       620 LOWER PART EQS.    BAND WIDTH + 1 =   34
 STRESS PERIOD=  1 TIMESTEP=834 LAYER=  2 ZONE=  2 ACTIVE CELLS= 1233 NUMBER OF EQUATIONS=    1233

 SOLVING FOR HEAD 

 NO OUTPUT CONTROL FOR STRESS PERIOD    1   TIME STEP  835
 SOLVING FOR ZETA FOR LAYER     1 ZONE     2

     599 UPPER PART EQS.       590 LOWER PART EQS.    BAND WIDTH + 1 =   32
 STRESS PERIOD=  1 TIMESTEP=835 LAYER=  1 ZONE=  2 ACTIVE CELLS= 1189 NUMBER OF EQUATIONS=    1189
 SOLVING FOR ZETA FOR LAYER     2 ZONE     2

     613 UPPER PART EQS.       620 LOWER PART EQS.    BAND WIDTH + 1 =   34
 STRESS PERIOD=  1 TIMESTEP=835 LAYER=  2 ZONE=  2 ACTIVE CELLS= 1233 NUMBER OF EQUATIONS=    1233

 SOLVING FOR HEAD 

 NO OUTPUT CONTROL FOR STRESS PERIOD    1   TIME STEP  836
 SOLVING FOR ZETA FOR LAYER     1 ZONE     2

     596 UPPER PART EQS.       614 LOWER PART EQS.    BAND WIDTH + 1 =   43
 STRESS PERIOD=  1 TIMESTEP=836 LAYER=  1 ZONE=  2 ACTIVE CELLS= 1210 NUMBER OF EQUATIONS=    1210
 SOLVING FOR ZETA FOR LAYER     2 ZONE     2

     613 UPPER PART EQS.       620 LOWER PART EQS.    BAND WIDTH + 1 =   34
 STRESS PERIOD=  1 TIMESTEP=836 LAYER=  2 ZONE=  2 ACTIVE CELLS= 1233 NUMBER OF EQUATIONS=    1233

 SOLVING FOR HEAD 

 NO OUTPUT CONTROL FOR STRESS PERIOD    1   TIME STEP  837
 SOLVING FOR ZETA FOR LAYER     1 ZONE     2

     598 UPPER PART EQS.       590 LOWER PART EQS.    BAND WIDTH + 1 =   31
 STRESS PERIOD=  1 TIMESTEP=837 LAYER=  1 ZONE=  2 ACTIVE CELLS= 1188 NUMBER OF EQUATIONS=    1188
 SOLVING FOR ZETA FOR LAYER     2 ZONE     2

     613 UPPER PART EQS.       622 LOWER PART EQS.    BAND WIDTH + 1 =   34
 STRESS PERIOD=  1 TIMESTEP=837 LAYER=  2 ZONE=  2 ACTIVE CELLS= 1235 NUMBER OF EQUATIONS=    1235

 SOLVING FOR HEAD 

 NO OUTPUT CONTROL FOR STRESS PERIOD    1   TIME STEP  838
 SOLVING FOR ZETA FOR LAYER     1 ZONE     2

     608 UPPER PART EQS.       612 LOWER PART EQS.    BAND WIDTH + 1 =   28
 STRESS PERIOD=  1 TIMESTEP=838 LAYER=  1 ZONE=  2 ACTIVE CELLS= 1220 NUMBER OF EQUATIONS=    1220
 SOLVING FOR ZETA FOR LAYER     2 ZONE     2

     613 UPPER PART EQS.       622 LOWER PART EQS.    BAND WIDTH + 1 =   34
 STRESS PERIOD=  1 TIMESTEP=838 LAYER=  2 ZONE=  2 ACTIVE CELLS= 1235 NUMBER OF EQUATIONS=    1235

 SOLVING FOR HEAD 

 NO OUTPUT CONTROL FOR STRESS PERIOD    1   TIME STEP  839
 SOLVING FOR ZETA FOR LAYER     1 ZONE     2

     601 UPPER PART EQS.       592 LOWER PART EQS.    BAND WIDTH + 1 =   32
 STRESS PERIOD=  1 TIMESTEP=839 LAYER=  1 ZONE=  2 ACTIVE CELLS= 1193 NUMBER OF EQUATIONS=    1193
 SOLVING FOR ZETA FOR LAYER     2 ZONE     2

     613 UPPER PART EQS.       622 LOWER PART EQS.    BAND WIDTH + 1 =   34
 STRESS PERIOD=  1 TIMESTEP=839 LAYER=  2 ZONE=  2 ACTIVE CELLS= 1235 NUMBER OF EQUATIONS=    1235

 SOLVING FOR HEAD 

 NO OUTPUT CONTROL FOR STRESS PERIOD    1   TIME STEP  840
 SOLVING FOR ZETA FOR LAYER     1 ZONE     2

     597 UPPER PART EQS.       616 LOWER PART EQS.    BAND WIDTH + 1 =   41
 STRESS PERIOD=  1 TIMESTEP=840 LAYER=  1 ZONE=  2 ACTIVE CELLS= 1213 NUMBER OF EQUATIONS=    1213
 SOLVING FOR ZETA FOR LAYER     2 ZONE     2

     613 UPPER PART EQS.       624 LOWER PART EQS.    BAND WIDTH + 1 =   34
 STRESS PERIOD=  1 TIMESTEP=840 LAYER=  2 ZONE=  2 ACTIVE CELLS= 1237 NUMBER OF EQUATIONS=    1237

 SOLVING FOR HEAD 

 NO OUTPUT CONTROL FOR STRESS PERIOD    1   TIME STEP  841
 SOLVING FOR ZETA FOR LAYER     1 ZONE     2

     604 UPPER PART EQS.       602 LOWER PART EQS.    BAND WIDTH + 1 =   28
 STRESS PERIOD=  1 TIMESTEP=841 LAYER=  1 ZONE=  2 ACTIVE CELLS= 1206 NUMBER OF EQUATIONS=    1206
 SOLVING FOR ZETA FOR LAYER     2 ZONE     2

     613 UPPER PART EQS.       624 LOWER PART EQS.    BAND WIDTH + 1 =   34
 STRESS PERIOD=  1 TIMESTEP=841 LAYER=  2 ZONE=  2 ACTIVE CELLS= 1237 NUMBER OF EQUATIONS=    1237

 SOLVING FOR HEAD 

 NO OUTPUT CONTROL FOR STRESS PERIOD    1   TIME STEP  842
 SOLVING FOR ZETA FOR LAYER     1 ZONE     2

     602 UPPER PART EQS.       616 LOWER PART EQS.    BAND WIDTH + 1 =   38
 STRESS PERIOD=  1 TIMESTEP=842 LAYER=  1 ZONE=  2 ACTIVE CELLS= 1218 NUMBER OF EQUATIONS=    1218
 SOLVING FOR ZETA FOR LAYER     2 ZONE     2

     613 UPPER PART EQS.       624 LOWER PART EQS.    BAND WIDTH + 1 =   34
 STRESS PERIOD=  1 TIMESTEP=842 LAYER=  2 ZONE=  2 ACTIVE CELLS= 1237 NUMBER OF EQUATIONS=    1237

 SOLVING FOR HEAD 

 NO OUTPUT CONTROL FOR STRESS PERIOD    1   TIME STEP  843
 SOLVING FOR ZETA FOR LAYER     1 ZONE     2

     601 UPPER PART EQS.       596 LOWER PART EQS.    BAND WIDTH + 1 =   30
 STRESS PERIOD=  1 TIMESTEP=843 LAYER=  1 ZONE=  2 ACTIVE CELLS= 1197 NUMBER OF EQUATIONS=    1197
 SOLVING FOR ZETA FOR LAYER     2 ZONE     2

     613 UPPER PART EQS.       624 LOWER PART EQS.    BAND WIDTH + 1 =   34
 STRESS PERIOD=  1 TIMESTEP=843 LAYER=  2 ZONE=  2 ACTIVE CELLS= 1237 NUMBER OF EQUATIONS=    1237

 SOLVING FOR HEAD 

 NO OUTPUT CONTROL FOR STRESS PERIOD    1   TIME STEP  844
 SOLVING FOR ZETA FOR LAYER     1 ZONE     2

     601 UPPER PART EQS.       608 LOWER PART EQS.    BAND WIDTH + 1 =   31
 STRESS PERIOD=  1 TIMESTEP=844 LAYER=  1 ZONE=  2 ACTIVE CELLS= 1209 NUMBER OF EQUATIONS=    1209
 SOLVING FOR ZETA FOR LAYER     2 ZONE     2

     613 UPPER PART EQS.       624 LOWER PART EQS.    BAND WIDTH + 1 =   34
 STRESS PERIOD=  1 TIMESTEP=844 LAYER=  2 ZONE=  2 ACTIVE CELLS= 1237 NUMBER OF EQUATIONS=    1237

 SOLVING FOR HEAD 

 NO OUTPUT CONTROL FOR STRESS PERIOD    1   TIME STEP  845
 SOLVING FOR ZETA FOR LAYER     1 ZONE     2

     601 UPPER PART EQS.       592 LOWER PART EQS.    BAND WIDTH + 1 =   35
 STRESS PERIOD=  1 TIMESTEP=845 LAYER=  1 ZONE=  2 ACTIVE CELLS= 1193 NUMBER OF EQUATIONS=    1193
 SOLVING FOR ZETA FOR LAYER     2 ZONE     2

     613 UPPER PART EQS.       624 LOWER PART EQS.    BAND WIDTH + 1 =   34
 STRESS PERIOD=  1 TIMESTEP=845 LAYER=  2 ZONE=  2 ACTIVE CELLS= 1237 NUMBER OF EQUATIONS=    1237

 SOLVING FOR HEAD 

 NO OUTPUT CONTROL FOR STRESS PERIOD    1   TIME STEP  846
 SOLVING FOR ZETA FOR LAYER     1 ZONE     2

     594 UPPER PART EQS.       616 LOWER PART EQS.    BAND WIDTH + 1 =   45
 STRESS PERIOD=  1 TIMESTEP=846 LAYER=  1 ZONE=  2 ACTIVE CELLS= 1210 NUMBER OF EQUATIONS=    1210
 SOLVING FOR ZETA FOR LAYER     2 ZONE     2

     613 UPPER PART EQS.       624 LOWER PART EQS.    BAND WIDTH + 1 =   34
 STRESS PERIOD=  1 TIMESTEP=846 LAYER=  2 ZONE=  2 ACTIVE CELLS= 1237 NUMBER OF EQUATIONS=    1237

 SOLVING FOR HEAD 

 NO OUTPUT CONTROL FOR STRESS PERIOD    1   TIME STEP  847
 SOLVING FOR ZETA FOR LAYER     1 ZONE     2

     604 UPPER PART EQS.       596 LOWER PART EQS.    BAND WIDTH + 1 =   31
 STRESS PERIOD=  1 TIMESTEP=847 LAYER=  1 ZONE=  2 ACTIVE CELLS= 1200 NUMBER OF EQUATIONS=    1200
 SOLVING FOR ZETA FOR LAYER     2 ZONE     2

     613 UPPER PART EQS.       624 LOWER PART EQS.    BAND WIDTH + 1 =   34
 STRESS PERIOD=  1 TIMESTEP=847 LAYER=  2 ZONE=  2 ACTIVE CELLS= 1237 NUMBER OF EQUATIONS=    1237

 SOLVING FOR HEAD 

 NO OUTPUT CONTROL FOR STRESS PERIOD    1   TIME STEP  848
 SOLVING FOR ZETA FOR LAYER     1 ZONE     2

     606 UPPER PART EQS.       610 LOWER PART EQS.    BAND WIDTH + 1 =   32
 STRESS PERIOD=  1 TIMESTEP=848 LAYER=  1 ZONE=  2 ACTIVE CELLS= 1216 NUMBER OF EQUATIONS=    1216
 SOLVING FOR ZETA FOR LAYER     2 ZONE     2

     613 UPPER PART EQS.       624 LOWER PART EQS.    BAND WIDTH + 1 =   34
 STRESS PERIOD=  1 TIMESTEP=848 LAYER=  2 ZONE=  2 ACTIVE CELLS= 1237 NUMBER OF EQUATIONS=    1237

 SOLVING FOR HEAD 

 NO OUTPUT CONTROL FOR STRESS PERIOD    1   TIME STEP  849
 SOLVING FOR ZETA FOR LAYER     1 ZONE     2

     602 UPPER PART EQS.       594 LOWER PART EQS.    BAND WIDTH + 1 =   29
 STRESS PERIOD=  1 TIMESTEP=849 LAYER=  1 ZONE=  2 ACTIVE CELLS= 1196 NUMBER OF EQUATIONS=    1196
 SOLVING FOR ZETA FOR LAYER     2 ZONE     2

     613 UPPER PART EQS.       624 LOWER PART EQS.    BAND WIDTH + 1 =   34
 STRESS PERIOD=  1 TIMESTEP=849 LAYER=  2 ZONE=  2 ACTIVE CELLS= 1237 NUMBER OF EQUATIONS=    1237

 SOLVING FOR HEAD 

 NO OUTPUT CONTROL FOR STRESS PERIOD    1   TIME STEP  850
 SOLVING FOR ZETA FOR LAYER     1 ZONE     2

     611 UPPER PART EQS.       604 LOWER PART EQS.    BAND WIDTH + 1 =   26
 STRESS PERIOD=  1 TIMESTEP=850 LAYER=  1 ZONE=  2 ACTIVE CELLS= 1215 NUMBER OF EQUATIONS=    1215
 SOLVING FOR ZETA FOR LAYER     2 ZONE     2

     613 UPPER PART EQS.       624 LOWER PART EQS.    BAND WIDTH + 1 =   34
 STRESS PERIOD=  1 TIMESTEP=850 LAYER=  2 ZONE=  2 ACTIVE CELLS= 1237 NUMBER OF EQUATIONS=    1237

 SOLVING FOR HEAD 

 NO OUTPUT CONTROL FOR STRESS PERIOD    1   TIME STEP  851
 SOLVING FOR ZETA FOR LAYER     1 ZONE     2

     603 UPPER PART EQS.       594 LOWER PART EQS.    BAND WIDTH + 1 =   34
 STRESS PERIOD=  1 TIMESTEP=851 LAYER=  1 ZONE=  2 ACTIVE CELLS= 1197 NUMBER OF EQUATIONS=    1197
 SOLVING FOR ZETA FOR LAYER     2 ZONE     2

     617 UPPER PART EQS.       624 LOWER PART EQS.    BAND WIDTH + 1 =   34
 STRESS PERIOD=  1 TIMESTEP=851 LAYER=  2 ZONE=  2 ACTIVE CELLS= 1241 NUMBER OF EQUATIONS=    1241

 SOLVING FOR HEAD 

 NO OUTPUT CONTROL FOR STRESS PERIOD    1   TIME STEP  852
 SOLVING FOR ZETA FOR LAYER     1 ZONE     2

     592 UPPER PART EQS.       617 LOWER PART EQS.    BAND WIDTH + 1 =   46
 STRESS PERIOD=  1 TIMESTEP=852 LAYER=  1 ZONE=  2 ACTIVE CELLS= 1209 NUMBER OF EQUATIONS=    1209
 SOLVING FOR ZETA FOR LAYER     2 ZONE     2

     621 UPPER PART EQS.       622 LOWER PART EQS.    BAND WIDTH + 1 =   34
 STRESS PERIOD=  1 TIMESTEP=852 LAYER=  2 ZONE=  2 ACTIVE CELLS= 1243 NUMBER OF EQUATIONS=    1243

 SOLVING FOR HEAD 

 NO OUTPUT CONTROL FOR STRESS PERIOD    1   TIME STEP  853
 SOLVING FOR ZETA FOR LAYER     1 ZONE     2

     602 UPPER PART EQS.       600 LOWER PART EQS.    BAND WIDTH + 1 =   28
 STRESS PERIOD=  1 TIMESTEP=853 LAYER=  1 ZONE=  2 ACTIVE CELLS= 1202 NUMBER OF EQUATIONS=    1202
 SOLVING FOR ZETA FOR LAYER     2 ZONE     2

     621 UPPER PART EQS.       622 LOWER PART EQS.    BAND WIDTH + 1 =   34
 STRESS PERIOD=  1 TIMESTEP=853 LAYER=  2 ZONE=  2 ACTIVE CELLS= 1243 NUMBER OF EQUATIONS=    1243

 SOLVING FOR HEAD 

 NO OUTPUT CONTROL FOR STRESS PERIOD    1   TIME STEP  854
 SOLVING FOR ZETA FOR LAYER     1 ZONE     2

     598 UPPER PART EQS.       616 LOWER PART EQS.    BAND WIDTH + 1 =   40
 STRESS PERIOD=  1 TIMESTEP=854 LAYER=  1 ZONE=  2 ACTIVE CELLS= 1214 NUMBER OF EQUATIONS=    1214
 SOLVING FOR ZETA FOR LAYER     2 ZONE     2

     621 UPPER PART EQS.       622 LOWER PART EQS.    BAND WIDTH + 1 =   34
 STRESS PERIOD=  1 TIMESTEP=854 LAYER=  2 ZONE=  2 ACTIVE CELLS= 1243 NUMBER OF EQUATIONS=    1243

 SOLVING FOR HEAD 

 NO OUTPUT CONTROL FOR STRESS PERIOD    1   TIME STEP  855
 SOLVING FOR ZETA FOR LAYER     1 ZONE     2

     604 UPPER PART EQS.       600 LOWER PART EQS.    BAND WIDTH + 1 =   29
 STRESS PERIOD=  1 TIMESTEP=855 LAYER=  1 ZONE=  2 ACTIVE CELLS= 1204 NUMBER OF EQUATIONS=    1204
 SOLVING FOR ZETA FOR LAYER     2 ZONE     2

     621 UPPER PART EQS.       620 LOWER PART EQS.    BAND WIDTH + 1 =   34
 STRESS PERIOD=  1 TIMESTEP=855 LAYER=  2 ZONE=  2 ACTIVE CELLS= 1241 NUMBER OF EQUATIONS=    1241

 SOLVING FOR HEAD 

 NO OUTPUT CONTROL FOR STRESS PERIOD    1   TIME STEP  856
 SOLVING FOR ZETA FOR LAYER     1 ZONE     2

     611 UPPER PART EQS.       608 LOWER PART EQS.    BAND WIDTH + 1 =   25
 STRESS PERIOD=  1 TIMESTEP=856 LAYER=  1 ZONE=  2 ACTIVE CELLS= 1219 NUMBER OF EQUATIONS=    1219
 SOLVING FOR ZETA FOR LAYER     2 ZONE     2

     621 UPPER PART EQS.       620 LOWER PART EQS.    BAND WIDTH + 1 =   34
 STRESS PERIOD=  1 TIMESTEP=856 LAYER=  2 ZONE=  2 ACTIVE CELLS= 1241 NUMBER OF EQUATIONS=    1241

 SOLVING FOR HEAD 

 NO OUTPUT CONTROL FOR STRESS PERIOD    1   TIME STEP  857
 SOLVING FOR ZETA FOR LAYER     1 ZONE     2

     609 UPPER PART EQS.       598 LOWER PART EQS.    BAND WIDTH + 1 =   35
 STRESS PERIOD=  1 TIMESTEP=857 LAYER=  1 ZONE=  2 ACTIVE CELLS= 1207 NUMBER OF EQUATIONS=    1207
 SOLVING FOR ZETA FOR LAYER     2 ZONE     2

     621 UPPER PART EQS.       620 LOWER PART EQS.    BAND WIDTH + 1 =   34
 STRESS PERIOD=  1 TIMESTEP=857 LAYER=  2 ZONE=  2 ACTIVE CELLS= 1241 NUMBER OF EQUATIONS=    1241

 SOLVING FOR HEAD 

 NO OUTPUT CONTROL FOR STRESS PERIOD    1   TIME STEP  858
 SOLVING FOR ZETA FOR LAYER     1 ZONE     2

     594 UPPER PART EQS.       616 LOWER PART EQS.    BAND WIDTH + 1 =   44
 STRESS PERIOD=  1 TIMESTEP=858 LAYER=  1 ZONE=  2 ACTIVE CELLS= 1210 NUMBER OF EQUATIONS=    1210
 SOLVING FOR ZETA FOR LAYER     2 ZONE     2

     621 UPPER PART EQS.       620 LOWER PART EQS.    BAND WIDTH + 1 =   34
 STRESS PERIOD=  1 TIMESTEP=858 LAYER=  2 ZONE=  2 ACTIVE CELLS= 1241 NUMBER OF EQUATIONS=    1241

 SOLVING FOR HEAD 

 NO OUTPUT CONTROL FOR STRESS PERIOD    1   TIME STEP  859
 SOLVING FOR ZETA FOR LAYER     1 ZONE     2

     598 UPPER PART EQS.       596 LOWER PART EQS.    BAND WIDTH + 1 =   27
 STRESS PERIOD=  1 TIMESTEP=859 LAYER=  1 ZONE=  2 ACTIVE CELLS= 1194 NUMBER OF EQUATIONS=    1194
 SOLVING FOR ZETA FOR LAYER     2 ZONE     2

     621 UPPER PART EQS.       620 LOWER PART EQS.    BAND WIDTH + 1 =   34
 STRESS PERIOD=  1 TIMESTEP=859 LAYER=  2 ZONE=  2 ACTIVE CELLS= 1241 NUMBER OF EQUATIONS=    1241

 SOLVING FOR HEAD 

 NO OUTPUT CONTROL FOR STRESS PERIOD    1   TIME STEP  860
 SOLVING FOR ZETA FOR LAYER     1 ZONE     2

     604 UPPER PART EQS.       610 LOWER PART EQS.    BAND WIDTH + 1 =   33
 STRESS PERIOD=  1 TIMESTEP=860 LAYER=  1 ZONE=  2 ACTIVE CELLS= 1214 NUMBER OF EQUATIONS=    1214
 SOLVING FOR ZETA FOR LAYER     2 ZONE     2

     621 UPPER PART EQS.       622 LOWER PART EQS.    BAND WIDTH + 1 =   34
 STRESS PERIOD=  1 TIMESTEP=860 LAYER=  2 ZONE=  2 ACTIVE CELLS= 1243 NUMBER OF EQUATIONS=    1243

 SOLVING FOR HEAD 

 NO OUTPUT CONTROL FOR STRESS PERIOD    1   TIME STEP  861
 SOLVING FOR ZETA FOR LAYER     1 ZONE     2

     602 UPPER PART EQS.       594 LOWER PART EQS.    BAND WIDTH + 1 =   31
 STRESS PERIOD=  1 TIMESTEP=861 LAYER=  1 ZONE=  2 ACTIVE CELLS= 1196 NUMBER OF EQUATIONS=    1196
 SOLVING FOR ZETA FOR LAYER     2 ZONE     2

     621 UPPER PART EQS.       622 LOWER PART EQS.    BAND WIDTH + 1 =   34
 STRESS PERIOD=  1 TIMESTEP=861 LAYER=  2 ZONE=  2 ACTIVE CELLS= 1243 NUMBER OF EQUATIONS=    1243

 SOLVING FOR HEAD 

 NO OUTPUT CONTROL FOR STRESS PERIOD    1   TIME STEP  862
 SOLVING FOR ZETA FOR LAYER     1 ZONE     2

     609 UPPER PART EQS.       604 LOWER PART EQS.    BAND WIDTH + 1 =   25
 STRESS PERIOD=  1 TIMESTEP=862 LAYER=  1 ZONE=  2 ACTIVE CELLS= 1213 NUMBER OF EQUATIONS=    1213
 SOLVING FOR ZETA FOR LAYER     2 ZONE     2

     621 UPPER PART EQS.       624 LOWER PART EQS.    BAND WIDTH + 1 =   34
 STRESS PERIOD=  1 TIMESTEP=862 LAYER=  2 ZONE=  2 ACTIVE CELLS= 1245 NUMBER OF EQUATIONS=    1245

 SOLVING FOR HEAD 

 NO OUTPUT CONTROL FOR STRESS PERIOD    1   TIME STEP  863
 SOLVING FOR ZETA FOR LAYER     1 ZONE     2

     607 UPPER PART EQS.       594 LOWER PART EQS.    BAND WIDTH + 1 =   35
 STRESS PERIOD=  1 TIMESTEP=863 LAYER=  1 ZONE=  2 ACTIVE CELLS= 1201 NUMBER OF EQUATIONS=    1201
 SOLVING FOR ZETA FOR LAYER     2 ZONE     2

     621 UPPER PART EQS.       624 LOWER PART EQS.    BAND WIDTH + 1 =   34
 STRESS PERIOD=  1 TIMESTEP=863 LAYER=  2 ZONE=  2 ACTIVE CELLS= 1245 NUMBER OF EQUATIONS=    1245

 SOLVING FOR HEAD 

 NO OUTPUT CONTROL FOR STRESS PERIOD    1   TIME STEP  864
 SOLVING FOR ZETA FOR LAYER     1 ZONE     2

     594 UPPER PART EQS.       618 LOWER PART EQS.    BAND WIDTH + 1 =   47
 STRESS PERIOD=  1 TIMESTEP=864 LAYER=  1 ZONE=  2 ACTIVE CELLS= 1212 NUMBER OF EQUATIONS=    1212
 SOLVING FOR ZETA FOR LAYER     2 ZONE     2

     621 UPPER PART EQS.       624 LOWER PART EQS.    BAND WIDTH + 1 =   34
 STRESS PERIOD=  1 TIMESTEP=864 LAYER=  2 ZONE=  2 ACTIVE CELLS= 1245 NUMBER OF EQUATIONS=    1245

 SOLVING FOR HEAD 

 NO OUTPUT CONTROL FOR STRESS PERIOD    1   TIME STEP  865
 SOLVING FOR ZETA FOR LAYER     1 ZONE     2

     602 UPPER PART EQS.       600 LOWER PART EQS.    BAND WIDTH + 1 =   29
 STRESS PERIOD=  1 TIMESTEP=865 LAYER=  1 ZONE=  2 ACTIVE CELLS= 1202 NUMBER OF EQUATIONS=    1202
 SOLVING FOR ZETA FOR LAYER     2 ZONE     2

     621 UPPER PART EQS.       624 LOWER PART EQS.    BAND WIDTH + 1 =   34
 STRESS PERIOD=  1 TIMESTEP=865 LAYER=  2 ZONE=  2 ACTIVE CELLS= 1245 NUMBER OF EQUATIONS=    1245

 SOLVING FOR HEAD 

 NO OUTPUT CONTROL FOR STRESS PERIOD    1   TIME STEP  866
 SOLVING FOR ZETA FOR LAYER     1 ZONE     2

     602 UPPER PART EQS.       614 LOWER PART EQS.    BAND WIDTH + 1 =   35
 STRESS PERIOD=  1 TIMESTEP=866 LAYER=  1 ZONE=  2 ACTIVE CELLS= 1216 NUMBER OF EQUATIONS=    1216
 SOLVING FOR ZETA FOR LAYER     2 ZONE     2

     617 UPPER PART EQS.       624 LOWER PART EQS.    BAND WIDTH + 1 =   34
 STRESS PERIOD=  1 TIMESTEP=866 LAYER=  2 ZONE=  2 ACTIVE CELLS= 1241 NUMBER OF EQUATIONS=    1241

 SOLVING FOR HEAD 

 NO OUTPUT CONTROL FOR STRESS PERIOD    1   TIME STEP  867
 SOLVING FOR ZETA FOR LAYER     1 ZONE     2

     606 UPPER PART EQS.       604 LOWER PART EQS.    BAND WIDTH + 1 =   28
 STRESS PERIOD=  1 TIMESTEP=867 LAYER=  1 ZONE=  2 ACTIVE CELLS= 1210 NUMBER OF EQUATIONS=    1210
 SOLVING FOR ZETA FOR LAYER     2 ZONE     2

     613 UPPER PART EQS.       624 LOWER PART EQS.    BAND WIDTH + 1 =   34
 STRESS PERIOD=  1 TIMESTEP=867 LAYER=  2 ZONE=  2 ACTIVE CELLS= 1237 NUMBER OF EQUATIONS=    1237

 SOLVING FOR HEAD 

 NO OUTPUT CONTROL FOR STRESS PERIOD    1   TIME STEP  868
 SOLVING FOR ZETA FOR LAYER     1 ZONE     2

     607 UPPER PART EQS.       612 LOWER PART EQS.    BAND WIDTH + 1 =   29
 STRESS PERIOD=  1 TIMESTEP=868 LAYER=  1 ZONE=  2 ACTIVE CELLS= 1219 NUMBER OF EQUATIONS=    1219
 SOLVING FOR ZETA FOR LAYER     2 ZONE     2

     613 UPPER PART EQS.       624 LOWER PART EQS.    BAND WIDTH + 1 =   34
 STRESS PERIOD=  1 TIMESTEP=868 LAYER=  2 ZONE=  2 ACTIVE CELLS= 1237 NUMBER OF EQUATIONS=    1237

 SOLVING FOR HEAD 

 NO OUTPUT CONTROL FOR STRESS PERIOD    1   TIME STEP  869
 SOLVING FOR ZETA FOR LAYER     1 ZONE     2

     595 UPPER PART EQS.       596 LOWER PART EQS.    BAND WIDTH + 1 =   24
 STRESS PERIOD=  1 TIMESTEP=869 LAYER=  1 ZONE=  2 ACTIVE CELLS= 1191 NUMBER OF EQUATIONS=    1191
 SOLVING FOR ZETA FOR LAYER     2 ZONE     2

     613 UPPER PART EQS.       624 LOWER PART EQS.    BAND WIDTH + 1 =   34
 STRESS PERIOD=  1 TIMESTEP=869 LAYER=  2 ZONE=  2 ACTIVE CELLS= 1237 NUMBER OF EQUATIONS=    1237

 SOLVING FOR HEAD 

 NO OUTPUT CONTROL FOR STRESS PERIOD    1   TIME STEP  870
 SOLVING FOR ZETA FOR LAYER     1 ZONE     2

     600 UPPER PART EQS.       620 LOWER PART EQS.    BAND WIDTH + 1 =   43
 STRESS PERIOD=  1 TIMESTEP=870 LAYER=  1 ZONE=  2 ACTIVE CELLS= 1220 NUMBER OF EQUATIONS=    1220
 SOLVING FOR ZETA FOR LAYER     2 ZONE     2

     613 UPPER PART EQS.       624 LOWER PART EQS.    BAND WIDTH + 1 =   34
 STRESS PERIOD=  1 TIMESTEP=870 LAYER=  2 ZONE=  2 ACTIVE CELLS= 1237 NUMBER OF EQUATIONS=    1237

 SOLVING FOR HEAD 

 NO OUTPUT CONTROL FOR STRESS PERIOD    1   TIME STEP  871
 SOLVING FOR ZETA FOR LAYER     1 ZONE     2

     608 UPPER PART EQS.       598 LOWER PART EQS.    BAND WIDTH + 1 =   32
 STRESS PERIOD=  1 TIMESTEP=871 LAYER=  1 ZONE=  2 ACTIVE CELLS= 1206 NUMBER OF EQUATIONS=    1206
 SOLVING FOR ZETA FOR LAYER     2 ZONE     2

     613 UPPER PART EQS.       624 LOWER PART EQS.    BAND WIDTH + 1 =   34
 STRESS PERIOD=  1 TIMESTEP=871 LAYER=  2 ZONE=  2 ACTIVE CELLS= 1237 NUMBER OF EQUATIONS=    1237

 SOLVING FOR HEAD 

 NO OUTPUT CONTROL FOR STRESS PERIOD    1   TIME STEP  872
 SOLVING FOR ZETA FOR LAYER     1 ZONE     2

     598 UPPER PART EQS.       608 LOWER PART EQS.    BAND WIDTH + 1 =   36
 STRESS PERIOD=  1 TIMESTEP=872 LAYER=  1 ZONE=  2 ACTIVE CELLS= 1206 NUMBER OF EQUATIONS=    1206
 SOLVING FOR ZETA FOR LAYER     2 ZONE     2

     613 UPPER PART EQS.       624 LOWER PART EQS.    BAND WIDTH + 1 =   34
 STRESS PERIOD=  1 TIMESTEP=872 LAYER=  2 ZONE=  2 ACTIVE CELLS= 1237 NUMBER OF EQUATIONS=    1237

 SOLVING FOR HEAD 

 NO OUTPUT CONTROL FOR STRESS PERIOD    1   TIME STEP  873
 SOLVING FOR ZETA FOR LAYER     1 ZONE     2

     606 UPPER PART EQS.       596 LOWER PART EQS.    BAND WIDTH + 1 =   33
 STRESS PERIOD=  1 TIMESTEP=873 LAYER=  1 ZONE=  2 ACTIVE CELLS= 1202 NUMBER OF EQUATIONS=    1202
 SOLVING FOR ZETA FOR LAYER     2 ZONE     2

     617 UPPER PART EQS.       624 LOWER PART EQS.    BAND WIDTH + 1 =   34
 STRESS PERIOD=  1 TIMESTEP=873 LAYER=  2 ZONE=  2 ACTIVE CELLS= 1241 NUMBER OF EQUATIONS=    1241

 SOLVING FOR HEAD 

 NO OUTPUT CONTROL FOR STRESS PERIOD    1   TIME STEP  874
 SOLVING FOR ZETA FOR LAYER     1 ZONE     2

     605 UPPER PART EQS.       602 LOWER PART EQS.    BAND WIDTH + 1 =   24
 STRESS PERIOD=  1 TIMESTEP=874 LAYER=  1 ZONE=  2 ACTIVE CELLS= 1207 NUMBER OF EQUATIONS=    1207
 SOLVING FOR ZETA FOR LAYER     2 ZONE     2

     621 UPPER PART EQS.       624 LOWER PART EQS.    BAND WIDTH + 1 =   34
 STRESS PERIOD=  1 TIMESTEP=874 LAYER=  2 ZONE=  2 ACTIVE CELLS= 1245 NUMBER OF EQUATIONS=    1245

 SOLVING FOR HEAD 

 NO OUTPUT CONTROL FOR STRESS PERIOD    1   TIME STEP  875
 SOLVING FOR ZETA FOR LAYER     1 ZONE     2

     597 UPPER PART EQS.       598 LOWER PART EQS.    BAND WIDTH + 1 =   25
 STRESS PERIOD=  1 TIMESTEP=875 LAYER=  1 ZONE=  2 ACTIVE CELLS= 1195 NUMBER OF EQUATIONS=    1195
 SOLVING FOR ZETA FOR LAYER     2 ZONE     2

     621 UPPER PART EQS.       624 LOWER PART EQS.    BAND WIDTH + 1 =   34
 STRESS PERIOD=  1 TIMESTEP=875 LAYER=  2 ZONE=  2 ACTIVE CELLS= 1245 NUMBER OF EQUATIONS=    1245

 SOLVING FOR HEAD 

 NO OUTPUT CONTROL FOR STRESS PERIOD    1   TIME STEP  876
 SOLVING FOR ZETA FOR LAYER     1 ZONE     2

     602 UPPER PART EQS.       620 LOWER PART EQS.    BAND WIDTH + 1 =   41
 STRESS PERIOD=  1 TIMESTEP=876 LAYER=  1 ZONE=  2 ACTIVE CELLS= 1222 NUMBER OF EQUATIONS=    1222
 SOLVING FOR ZETA FOR LAYER     2 ZONE     2

     621 UPPER PART EQS.       624 LOWER PART EQS.    BAND WIDTH + 1 =   34
 STRESS PERIOD=  1 TIMESTEP=876 LAYER=  2 ZONE=  2 ACTIVE CELLS= 1245 NUMBER OF EQUATIONS=    1245

 SOLVING FOR HEAD 

 NO OUTPUT CONTROL FOR STRESS PERIOD    1   TIME STEP  877
 SOLVING FOR ZETA FOR LAYER     1 ZONE     2

     604 UPPER PART EQS.       600 LOWER PART EQS.    BAND WIDTH + 1 =   29
 STRESS PERIOD=  1 TIMESTEP=877 LAYER=  1 ZONE=  2 ACTIVE CELLS= 1204 NUMBER OF EQUATIONS=    1204
 SOLVING FOR ZETA FOR LAYER     2 ZONE     2

     621 UPPER PART EQS.       624 LOWER PART EQS.    BAND WIDTH + 1 =   34
 STRESS PERIOD=  1 TIMESTEP=877 LAYER=  2 ZONE=  2 ACTIVE CELLS= 1245 NUMBER OF EQUATIONS=    1245

 SOLVING FOR HEAD 

 NO OUTPUT CONTROL FOR STRESS PERIOD    1   TIME STEP  878
 SOLVING FOR ZETA FOR LAYER     1 ZONE     2

     606 UPPER PART EQS.       618 LOWER PART EQS.    BAND WIDTH + 1 =   36
 STRESS PERIOD=  1 TIMESTEP=878 LAYER=  1 ZONE=  2 ACTIVE CELLS= 1224 NUMBER OF EQUATIONS=    1224
 SOLVING FOR ZETA FOR LAYER     2 ZONE     2

     621 UPPER PART EQS.       622 LOWER PART EQS.    BAND WIDTH + 1 =   34
 STRESS PERIOD=  1 TIMESTEP=878 LAYER=  2 ZONE=  2 ACTIVE CELLS= 1243 NUMBER OF EQUATIONS=    1243

 SOLVING FOR HEAD 

 NO OUTPUT CONTROL FOR STRESS PERIOD    1   TIME STEP  879
 SOLVING FOR ZETA FOR LAYER     1 ZONE     2

     602 UPPER PART EQS.       604 LOWER PART EQS.    BAND WIDTH + 1 =   25
 STRESS PERIOD=  1 TIMESTEP=879 LAYER=  1 ZONE=  2 ACTIVE CELLS= 1206 NUMBER OF EQUATIONS=    1206
 SOLVING FOR ZETA FOR LAYER     2 ZONE     2

     621 UPPER PART EQS.       622 LOWER PART EQS.    BAND WIDTH + 1 =   34
 STRESS PERIOD=  1 TIMESTEP=879 LAYER=  2 ZONE=  2 ACTIVE CELLS= 1243 NUMBER OF EQUATIONS=    1243

 SOLVING FOR HEAD 

 NO OUTPUT CONTROL FOR STRESS PERIOD    1   TIME STEP  880
 SOLVING FOR ZETA FOR LAYER     1 ZONE     2

     605 UPPER PART EQS.       606 LOWER PART EQS.    BAND WIDTH + 1 =   29
 STRESS PERIOD=  1 TIMESTEP=880 LAYER=  1 ZONE=  2 ACTIVE CELLS= 1211 NUMBER OF EQUATIONS=    1211
 SOLVING FOR ZETA FOR LAYER     2 ZONE     2

     621 UPPER PART EQS.       624 LOWER PART EQS.    BAND WIDTH + 1 =   34
 STRESS PERIOD=  1 TIMESTEP=880 LAYER=  2 ZONE=  2 ACTIVE CELLS= 1245 NUMBER OF EQUATIONS=    1245

 SOLVING FOR HEAD 

 NO OUTPUT CONTROL FOR STRESS PERIOD    1   TIME STEP  881
 SOLVING FOR ZETA FOR LAYER     1 ZONE     2

     603 UPPER PART EQS.       600 LOWER PART EQS.    BAND WIDTH + 1 =   29
 STRESS PERIOD=  1 TIMESTEP=881 LAYER=  1 ZONE=  2 ACTIVE CELLS= 1203 NUMBER OF EQUATIONS=    1203
 SOLVING FOR ZETA FOR LAYER     2 ZONE     2

     621 UPPER PART EQS.       624 LOWER PART EQS.    BAND WIDTH + 1 =   34
 STRESS PERIOD=  1 TIMESTEP=881 LAYER=  2 ZONE=  2 ACTIVE CELLS= 1245 NUMBER OF EQUATIONS=    1245

 SOLVING FOR HEAD 

 NO OUTPUT CONTROL FOR STRESS PERIOD    1   TIME STEP  882
 SOLVING FOR ZETA FOR LAYER     1 ZONE     2

     596 UPPER PART EQS.       616 LOWER PART EQS.    BAND WIDTH + 1 =   43
 STRESS PERIOD=  1 TIMESTEP=882 LAYER=  1 ZONE=  2 ACTIVE CELLS= 1212 NUMBER OF EQUATIONS=    1212
 SOLVING FOR ZETA FOR LAYER     2 ZONE     2

     621 UPPER PART EQS.       624 LOWER PART EQS.    BAND WIDTH + 1 =   34
 STRESS PERIOD=  1 TIMESTEP=882 LAYER=  2 ZONE=  2 ACTIVE CELLS= 1245 NUMBER OF EQUATIONS=    1245

 SOLVING FOR HEAD 

 NO OUTPUT CONTROL FOR STRESS PERIOD    1   TIME STEP  883
 SOLVING FOR ZETA FOR LAYER     1 ZONE     2

     602 UPPER PART EQS.       596 LOWER PART EQS.    BAND WIDTH + 1 =   28
 STRESS PERIOD=  1 TIMESTEP=883 LAYER=  1 ZONE=  2 ACTIVE CELLS= 1198 NUMBER OF EQUATIONS=    1198
 SOLVING FOR ZETA FOR LAYER     2 ZONE     2

     621 UPPER PART EQS.       624 LOWER PART EQS.    BAND WIDTH + 1 =   34
 STRESS PERIOD=  1 TIMESTEP=883 LAYER=  2 ZONE=  2 ACTIVE CELLS= 1245 NUMBER OF EQUATIONS=    1245

 SOLVING FOR HEAD 

 NO OUTPUT CONTROL FOR STRESS PERIOD    1   TIME STEP  884
 SOLVING FOR ZETA FOR LAYER     1 ZONE     2

     608 UPPER PART EQS.       612 LOWER PART EQS.    BAND WIDTH + 1 =   30
 STRESS PERIOD=  1 TIMESTEP=884 LAYER=  1 ZONE=  2 ACTIVE CELLS= 1220 NUMBER OF EQUATIONS=    1220
 SOLVING FOR ZETA FOR LAYER     2 ZONE     2

     621 UPPER PART EQS.       624 LOWER PART EQS.    BAND WIDTH + 1 =   34
 STRESS PERIOD=  1 TIMESTEP=884 LAYER=  2 ZONE=  2 ACTIVE CELLS= 1245 NUMBER OF EQUATIONS=    1245

 SOLVING FOR HEAD 

 NO OUTPUT CONTROL FOR STRESS PERIOD    1   TIME STEP  885
 SOLVING FOR ZETA FOR LAYER     1 ZONE     2

     608 UPPER PART EQS.       598 LOWER PART EQS.    BAND WIDTH + 1 =   31
 STRESS PERIOD=  1 TIMESTEP=885 LAYER=  1 ZONE=  2 ACTIVE CELLS= 1206 NUMBER OF EQUATIONS=    1206
 SOLVING FOR ZETA FOR LAYER     2 ZONE     2

     621 UPPER PART EQS.       624 LOWER PART EQS.    BAND WIDTH + 1 =   34
 STRESS PERIOD=  1 TIMESTEP=885 LAYER=  2 ZONE=  2 ACTIVE CELLS= 1245 NUMBER OF EQUATIONS=    1245

 SOLVING FOR HEAD 

 NO OUTPUT CONTROL FOR STRESS PERIOD    1   TIME STEP  886
 SOLVING FOR ZETA FOR LAYER     1 ZONE     2

     603 UPPER PART EQS.       606 LOWER PART EQS.    BAND WIDTH + 1 =   28
 STRESS PERIOD=  1 TIMESTEP=886 LAYER=  1 ZONE=  2 ACTIVE CELLS= 1209 NUMBER OF EQUATIONS=    1209
 SOLVING FOR ZETA FOR LAYER     2 ZONE     2

     621 UPPER PART EQS.       624 LOWER PART EQS.    BAND WIDTH + 1 =   34
 STRESS PERIOD=  1 TIMESTEP=886 LAYER=  2 ZONE=  2 ACTIVE CELLS= 1245 NUMBER OF EQUATIONS=    1245

 SOLVING FOR HEAD 

 NO OUTPUT CONTROL FOR STRESS PERIOD    1   TIME STEP  887
 SOLVING FOR ZETA FOR LAYER     1 ZONE     2

     604 UPPER PART EQS.       600 LOWER PART EQS.    BAND WIDTH + 1 =   26
 STRESS PERIOD=  1 TIMESTEP=887 LAYER=  1 ZONE=  2 ACTIVE CELLS= 1204 NUMBER OF EQUATIONS=    1204
 SOLVING FOR ZETA FOR LAYER     2 ZONE     2

     621 UPPER PART EQS.       624 LOWER PART EQS.    BAND WIDTH + 1 =   34
 STRESS PERIOD=  1 TIMESTEP=887 LAYER=  2 ZONE=  2 ACTIVE CELLS= 1245 NUMBER OF EQUATIONS=    1245

 SOLVING FOR HEAD 

 NO OUTPUT CONTROL FOR STRESS PERIOD    1   TIME STEP  888
 SOLVING FOR ZETA FOR LAYER     1 ZONE     2

     595 UPPER PART EQS.       622 LOWER PART EQS.    BAND WIDTH + 1 =   46
 STRESS PERIOD=  1 TIMESTEP=888 LAYER=  1 ZONE=  2 ACTIVE CELLS= 1217 NUMBER OF EQUATIONS=    1217
 SOLVING FOR ZETA FOR LAYER     2 ZONE     2

     621 UPPER PART EQS.       626 LOWER PART EQS.    BAND WIDTH + 1 =   34
 STRESS PERIOD=  1 TIMESTEP=888 LAYER=  2 ZONE=  2 ACTIVE CELLS= 1247 NUMBER OF EQUATIONS=    1247

 SOLVING FOR HEAD 

 NO OUTPUT CONTROL FOR STRESS PERIOD    1   TIME STEP  889
 SOLVING FOR ZETA FOR LAYER     1 ZONE     2

     608 UPPER PART EQS.       604 LOWER PART EQS.    BAND WIDTH + 1 =   30
 STRESS PERIOD=  1 TIMESTEP=889 LAYER=  1 ZONE=  2 ACTIVE CELLS= 1212 NUMBER OF EQUATIONS=    1212
 SOLVING FOR ZETA FOR LAYER     2 ZONE     2

     621 UPPER PART EQS.       628 LOWER PART EQS.    BAND WIDTH + 1 =   34
 STRESS PERIOD=  1 TIMESTEP=889 LAYER=  2 ZONE=  2 ACTIVE CELLS= 1249 NUMBER OF EQUATIONS=    1249

 SOLVING FOR HEAD 

 NO OUTPUT CONTROL FOR STRESS PERIOD    1   TIME STEP  890
 SOLVING FOR ZETA FOR LAYER     1 ZONE     2

     602 UPPER PART EQS.       616 LOWER PART EQS.    BAND WIDTH + 1 =   38
 STRESS PERIOD=  1 TIMESTEP=890 LAYER=  1 ZONE=  2 ACTIVE CELLS= 1218 NUMBER OF EQUATIONS=    1218
 SOLVING FOR ZETA FOR LAYER     2 ZONE     2

     621 UPPER PART EQS.       628 LOWER PART EQS.    BAND WIDTH + 1 =   34
 STRESS PERIOD=  1 TIMESTEP=890 LAYER=  2 ZONE=  2 ACTIVE CELLS= 1249 NUMBER OF EQUATIONS=    1249

 SOLVING FOR HEAD 

 NO OUTPUT CONTROL FOR STRESS PERIOD    1   TIME STEP  891
 SOLVING FOR ZETA FOR LAYER     1 ZONE     2

     604 UPPER PART EQS.       604 LOWER PART EQS.    BAND WIDTH + 1 =   24
 STRESS PERIOD=  1 TIMESTEP=891 LAYER=  1 ZONE=  2 ACTIVE CELLS= 1208 NUMBER OF EQUATIONS=    1208
 SOLVING FOR ZETA FOR LAYER     2 ZONE     2

     617 UPPER PART EQS.       628 LOWER PART EQS.    BAND WIDTH + 1 =   34
 STRESS PERIOD=  1 TIMESTEP=891 LAYER=  2 ZONE=  2 ACTIVE CELLS= 1245 NUMBER OF EQUATIONS=    1245

 SOLVING FOR HEAD 

 NO OUTPUT CONTROL FOR STRESS PERIOD    1   TIME STEP  892
 SOLVING FOR ZETA FOR LAYER     1 ZONE     2

     608 UPPER PART EQS.       602 LOWER PART EQS.    BAND WIDTH + 1 =   26
 STRESS PERIOD=  1 TIMESTEP=892 LAYER=  1 ZONE=  2 ACTIVE CELLS= 1210 NUMBER OF EQUATIONS=    1210
 SOLVING FOR ZETA FOR LAYER     2 ZONE     2

     613 UPPER PART EQS.       628 LOWER PART EQS.    BAND WIDTH + 1 =   34
 STRESS PERIOD=  1 TIMESTEP=892 LAYER=  2 ZONE=  2 ACTIVE CELLS= 1241 NUMBER OF EQUATIONS=    1241

 SOLVING FOR HEAD 

 NO OUTPUT CONTROL FOR STRESS PERIOD    1   TIME STEP  893
 SOLVING FOR ZETA FOR LAYER     1 ZONE     2

     607 UPPER PART EQS.       596 LOWER PART EQS.    BAND WIDTH + 1 =   32
 STRESS PERIOD=  1 TIMESTEP=893 LAYER=  1 ZONE=  2 ACTIVE CELLS= 1203 NUMBER OF EQUATIONS=    1203
 SOLVING FOR ZETA FOR LAYER     2 ZONE     2

     619 UPPER PART EQS.       628 LOWER PART EQS.    BAND WIDTH + 1 =   34
 STRESS PERIOD=  1 TIMESTEP=893 LAYER=  2 ZONE=  2 ACTIVE CELLS= 1247 NUMBER OF EQUATIONS=    1247

 SOLVING FOR HEAD 

 NO OUTPUT CONTROL FOR STRESS PERIOD    1   TIME STEP  894
 SOLVING FOR ZETA FOR LAYER     1 ZONE     2

     608 UPPER PART EQS.       610 LOWER PART EQS.    BAND WIDTH + 1 =   29
 STRESS PERIOD=  1 TIMESTEP=894 LAYER=  1 ZONE=  2 ACTIVE CELLS= 1218 NUMBER OF EQUATIONS=    1218
 SOLVING FOR ZETA FOR LAYER     2 ZONE     2

     621 UPPER PART EQS.       630 LOWER PART EQS.    BAND WIDTH + 1 =   34
 STRESS PERIOD=  1 TIMESTEP=894 LAYER=  2 ZONE=  2 ACTIVE CELLS= 1251 NUMBER OF EQUATIONS=    1251

 SOLVING FOR HEAD 

 NO OUTPUT CONTROL FOR STRESS PERIOD    1   TIME STEP  895
 SOLVING FOR ZETA FOR LAYER     1 ZONE     2

     591 UPPER PART EQS.       602 LOWER PART EQS.    BAND WIDTH + 1 =   31
 STRESS PERIOD=  1 TIMESTEP=895 LAYER=  1 ZONE=  2 ACTIVE CELLS= 1193 NUMBER OF EQUATIONS=    1193
 SOLVING FOR ZETA FOR LAYER     2 ZONE     2

     621 UPPER PART EQS.       630 LOWER PART EQS.    BAND WIDTH + 1 =   34
 STRESS PERIOD=  1 TIMESTEP=895 LAYER=  2 ZONE=  2 ACTIVE CELLS= 1251 NUMBER OF EQUATIONS=    1251

 SOLVING FOR HEAD 

 NO OUTPUT CONTROL FOR STRESS PERIOD    1   TIME STEP  896
 SOLVING FOR ZETA FOR LAYER     1 ZONE     2

     598 UPPER PART EQS.       618 LOWER PART EQS.    BAND WIDTH + 1 =   43
 STRESS PERIOD=  1 TIMESTEP=896 LAYER=  1 ZONE=  2 ACTIVE CELLS= 1216 NUMBER OF EQUATIONS=    1216
 SOLVING FOR ZETA FOR LAYER     2 ZONE     2

     621 UPPER PART EQS.       632 LOWER PART EQS.    BAND WIDTH + 1 =   34
 STRESS PERIOD=  1 TIMESTEP=896 LAYER=  2 ZONE=  2 ACTIVE CELLS= 1253 NUMBER OF EQUATIONS=    1253

 SOLVING FOR HEAD 

 NO OUTPUT CONTROL FOR STRESS PERIOD    1   TIME STEP  897
 SOLVING FOR ZETA FOR LAYER     1 ZONE     2

     612 UPPER PART EQS.       610 LOWER PART EQS.    BAND WIDTH + 1 =   25
 STRESS PERIOD=  1 TIMESTEP=897 LAYER=  1 ZONE=  2 ACTIVE CELLS= 1222 NUMBER OF EQUATIONS=    1222
 SOLVING FOR ZETA FOR LAYER     2 ZONE     2

     621 UPPER PART EQS.       632 LOWER PART EQS.    BAND WIDTH + 1 =   34
 STRESS PERIOD=  1 TIMESTEP=897 LAYER=  2 ZONE=  2 ACTIVE CELLS= 1253 NUMBER OF EQUATIONS=    1253

 SOLVING FOR HEAD 

 NO OUTPUT CONTROL FOR STRESS PERIOD    1   TIME STEP  898
 SOLVING FOR ZETA FOR LAYER     1 ZONE     2

     614 UPPER PART EQS.       614 LOWER PART EQS.    BAND WIDTH + 1 =   25
 STRESS PERIOD=  1 TIMESTEP=898 LAYER=  1 ZONE=  2 ACTIVE CELLS= 1228 NUMBER OF EQUATIONS=    1228
 SOLVING FOR ZETA FOR LAYER     2 ZONE     2

     621 UPPER PART EQS.       632 LOWER PART EQS.    BAND WIDTH + 1 =   34
 STRESS PERIOD=  1 TIMESTEP=898 LAYER=  2 ZONE=  2 ACTIVE CELLS= 1253 NUMBER OF EQUATIONS=    1253

 SOLVING FOR HEAD 

 NO OUTPUT CONTROL FOR STRESS PERIOD    1   TIME STEP  899
 SOLVING FOR ZETA FOR LAYER     1 ZONE     2

     610 UPPER PART EQS.       594 LOWER PART EQS.    BAND WIDTH + 1 =   34
 STRESS PERIOD=  1 TIMESTEP=899 LAYER=  1 ZONE=  2 ACTIVE CELLS= 1204 NUMBER OF EQUATIONS=    1204
 SOLVING FOR ZETA FOR LAYER     2 ZONE     2

     621 UPPER PART EQS.       628 LOWER PART EQS.    BAND WIDTH + 1 =   34
 STRESS PERIOD=  1 TIMESTEP=899 LAYER=  2 ZONE=  2 ACTIVE CELLS= 1249 NUMBER OF EQUATIONS=    1249

 SOLVING FOR HEAD 

 NO OUTPUT CONTROL FOR STRESS PERIOD    1   TIME STEP  900
 SOLVING FOR ZETA FOR LAYER     1 ZONE     2

     609 UPPER PART EQS.       616 LOWER PART EQS.    BAND WIDTH + 1 =   36
 STRESS PERIOD=  1 TIMESTEP=900 LAYER=  1 ZONE=  2 ACTIVE CELLS= 1225 NUMBER OF EQUATIONS=    1225
 SOLVING FOR ZETA FOR LAYER     2 ZONE     2

     621 UPPER PART EQS.       632 LOWER PART EQS.    BAND WIDTH + 1 =   34
 STRESS PERIOD=  1 TIMESTEP=900 LAYER=  2 ZONE=  2 ACTIVE CELLS= 1253 NUMBER OF EQUATIONS=    1253

 SOLVING FOR HEAD 

 NO OUTPUT CONTROL FOR STRESS PERIOD    1   TIME STEP  901
 SOLVING FOR ZETA FOR LAYER     1 ZONE     2

     614 UPPER PART EQS.       590 LOWER PART EQS.    BAND WIDTH + 1 =   40
 STRESS PERIOD=  1 TIMESTEP=901 LAYER=  1 ZONE=  2 ACTIVE CELLS= 1204 NUMBER OF EQUATIONS=    1204
 SOLVING FOR ZETA FOR LAYER     2 ZONE     2

     621 UPPER PART EQS.       632 LOWER PART EQS.    BAND WIDTH + 1 =   34
 STRESS PERIOD=  1 TIMESTEP=901 LAYER=  2 ZONE=  2 ACTIVE CELLS= 1253 NUMBER OF EQUATIONS=    1253

 SOLVING FOR HEAD 

 NO OUTPUT CONTROL FOR STRESS PERIOD    1   TIME STEP  902
 SOLVING FOR ZETA FOR LAYER     1 ZONE     2

     605 UPPER PART EQS.       614 LOWER PART EQS.    BAND WIDTH + 1 =   34
 STRESS PERIOD=  1 TIMESTEP=902 LAYER=  1 ZONE=  2 ACTIVE CELLS= 1219 NUMBER OF EQUATIONS=    1219
 SOLVING FOR ZETA FOR LAYER     2 ZONE     2

     621 UPPER PART EQS.       632 LOWER PART EQS.    BAND WIDTH + 1 =   34
 STRESS PERIOD=  1 TIMESTEP=902 LAYER=  2 ZONE=  2 ACTIVE CELLS= 1253 NUMBER OF EQUATIONS=    1253

 SOLVING FOR HEAD 

 NO OUTPUT CONTROL FOR STRESS PERIOD    1   TIME STEP  903
 SOLVING FOR ZETA FOR LAYER     1 ZONE     2

     602 UPPER PART EQS.       608 LOWER PART EQS.    BAND WIDTH + 1 =   30
 STRESS PERIOD=  1 TIMESTEP=903 LAYER=  1 ZONE=  2 ACTIVE CELLS= 1210 NUMBER OF EQUATIONS=    1210
 SOLVING FOR ZETA FOR LAYER     2 ZONE     2

     621 UPPER PART EQS.       632 LOWER PART EQS.    BAND WIDTH + 1 =   34
 STRESS PERIOD=  1 TIMESTEP=903 LAYER=  2 ZONE=  2 ACTIVE CELLS= 1253 NUMBER OF EQUATIONS=    1253

 SOLVING FOR HEAD 

 NO OUTPUT CONTROL FOR STRESS PERIOD    1   TIME STEP  904
 SOLVING FOR ZETA FOR LAYER     1 ZONE     2

     614 UPPER PART EQS.       612 LOWER PART EQS.    BAND WIDTH + 1 =   25
 STRESS PERIOD=  1 TIMESTEP=904 LAYER=  1 ZONE=  2 ACTIVE CELLS= 1226 NUMBER OF EQUATIONS=    1226
 SOLVING FOR ZETA FOR LAYER     2 ZONE     2

     621 UPPER PART EQS.       632 LOWER PART EQS.    BAND WIDTH + 1 =   34
 STRESS PERIOD=  1 TIMESTEP=904 LAYER=  2 ZONE=  2 ACTIVE CELLS= 1253 NUMBER OF EQUATIONS=    1253

 SOLVING FOR HEAD 

 NO OUTPUT CONTROL FOR STRESS PERIOD    1   TIME STEP  905
 SOLVING FOR ZETA FOR LAYER     1 ZONE     2

     602 UPPER PART EQS.       604 LOWER PART EQS.    BAND WIDTH + 1 =   27
 STRESS PERIOD=  1 TIMESTEP=905 LAYER=  1 ZONE=  2 ACTIVE CELLS= 1206 NUMBER OF EQUATIONS=    1206
 SOLVING FOR ZETA FOR LAYER     2 ZONE     2

     621 UPPER PART EQS.       632 LOWER PART EQS.    BAND WIDTH + 1 =   34
 STRESS PERIOD=  1 TIMESTEP=905 LAYER=  2 ZONE=  2 ACTIVE CELLS= 1253 NUMBER OF EQUATIONS=    1253

 SOLVING FOR HEAD 

 NO OUTPUT CONTROL FOR STRESS PERIOD    1   TIME STEP  906
 SOLVING FOR ZETA FOR LAYER     1 ZONE     2

     608 UPPER PART EQS.       610 LOWER PART EQS.    BAND WIDTH + 1 =   30
 STRESS PERIOD=  1 TIMESTEP=906 LAYER=  1 ZONE=  2 ACTIVE CELLS= 1218 NUMBER OF EQUATIONS=    1218
 SOLVING FOR ZETA FOR LAYER     2 ZONE     2

     621 UPPER PART EQS.       632 LOWER PART EQS.    BAND WIDTH + 1 =   34
 STRESS PERIOD=  1 TIMESTEP=906 LAYER=  2 ZONE=  2 ACTIVE CELLS= 1253 NUMBER OF EQUATIONS=    1253

 SOLVING FOR HEAD 

 NO OUTPUT CONTROL FOR STRESS PERIOD    1   TIME STEP  907
 SOLVING FOR ZETA FOR LAYER     1 ZONE     2

     603 UPPER PART EQS.       600 LOWER PART EQS.    BAND WIDTH + 1 =   28
 STRESS PERIOD=  1 TIMESTEP=907 LAYER=  1 ZONE=  2 ACTIVE CELLS= 1203 NUMBER OF EQUATIONS=    1203
 SOLVING FOR ZETA FOR LAYER     2 ZONE     2

     621 UPPER PART EQS.       628 LOWER PART EQS.    BAND WIDTH + 1 =   34
 STRESS PERIOD=  1 TIMESTEP=907 LAYER=  2 ZONE=  2 ACTIVE CELLS= 1249 NUMBER OF EQUATIONS=    1249

 SOLVING FOR HEAD 

 NO OUTPUT CONTROL FOR STRESS PERIOD    1   TIME STEP  908
 SOLVING FOR ZETA FOR LAYER     1 ZONE     2

     608 UPPER PART EQS.       614 LOWER PART EQS.    BAND WIDTH + 1 =   31
 STRESS PERIOD=  1 TIMESTEP=908 LAYER=  1 ZONE=  2 ACTIVE CELLS= 1222 NUMBER OF EQUATIONS=    1222
 SOLVING FOR ZETA FOR LAYER     2 ZONE     2

     621 UPPER PART EQS.       628 LOWER PART EQS.    BAND WIDTH + 1 =   34
 STRESS PERIOD=  1 TIMESTEP=908 LAYER=  2 ZONE=  2 ACTIVE CELLS= 1249 NUMBER OF EQUATIONS=    1249

 SOLVING FOR HEAD 

 NO OUTPUT CONTROL FOR STRESS PERIOD    1   TIME STEP  909
 SOLVING FOR ZETA FOR LAYER     1 ZONE     2

     593 UPPER PART EQS.       606 LOWER PART EQS.    BAND WIDTH + 1 =   34
 STRESS PERIOD=  1 TIMESTEP=909 LAYER=  1 ZONE=  2 ACTIVE CELLS= 1199 NUMBER OF EQUATIONS=    1199
 SOLVING FOR ZETA FOR LAYER     2 ZONE     2

     621 UPPER PART EQS.       628 LOWER PART EQS.    BAND WIDTH + 1 =   34
 STRESS PERIOD=  1 TIMESTEP=909 LAYER=  2 ZONE=  2 ACTIVE CELLS= 1249 NUMBER OF EQUATIONS=    1249

 SOLVING FOR HEAD 

 NO OUTPUT CONTROL FOR STRESS PERIOD    1   TIME STEP  910
 SOLVING FOR ZETA FOR LAYER     1 ZONE     2

     602 UPPER PART EQS.       612 LOWER PART EQS.    BAND WIDTH + 1 =   34
 STRESS PERIOD=  1 TIMESTEP=910 LAYER=  1 ZONE=  2 ACTIVE CELLS= 1214 NUMBER OF EQUATIONS=    1214
 SOLVING FOR ZETA FOR LAYER     2 ZONE     2

     621 UPPER PART EQS.       628 LOWER PART EQS.    BAND WIDTH + 1 =   34
 STRESS PERIOD=  1 TIMESTEP=910 LAYER=  2 ZONE=  2 ACTIVE CELLS= 1249 NUMBER OF EQUATIONS=    1249

 SOLVING FOR HEAD 

 NO OUTPUT CONTROL FOR STRESS PERIOD    1   TIME STEP  911
 SOLVING FOR ZETA FOR LAYER     1 ZONE     2

     602 UPPER PART EQS.       604 LOWER PART EQS.    BAND WIDTH + 1 =   26
 STRESS PERIOD=  1 TIMESTEP=911 LAYER=  1 ZONE=  2 ACTIVE CELLS= 1206 NUMBER OF EQUATIONS=    1206
 SOLVING FOR ZETA FOR LAYER     2 ZONE     2

     621 UPPER PART EQS.       626 LOWER PART EQS.    BAND WIDTH + 1 =   34
 STRESS PERIOD=  1 TIMESTEP=911 LAYER=  2 ZONE=  2 ACTIVE CELLS= 1247 NUMBER OF EQUATIONS=    1247

 SOLVING FOR HEAD 

 NO OUTPUT CONTROL FOR STRESS PERIOD    1   TIME STEP  912
 SOLVING FOR ZETA FOR LAYER     1 ZONE     2

     606 UPPER PART EQS.       618 LOWER PART EQS.    BAND WIDTH + 1 =   35
 STRESS PERIOD=  1 TIMESTEP=912 LAYER=  1 ZONE=  2 ACTIVE CELLS= 1224 NUMBER OF EQUATIONS=    1224
 SOLVING FOR ZETA FOR LAYER     2 ZONE     2

     621 UPPER PART EQS.       626 LOWER PART EQS.    BAND WIDTH + 1 =   34
 STRESS PERIOD=  1 TIMESTEP=912 LAYER=  2 ZONE=  2 ACTIVE CELLS= 1247 NUMBER OF EQUATIONS=    1247

 SOLVING FOR HEAD 

 NO OUTPUT CONTROL FOR STRESS PERIOD    1   TIME STEP  913
 SOLVING FOR ZETA FOR LAYER     1 ZONE     2

     610 UPPER PART EQS.       590 LOWER PART EQS.    BAND WIDTH + 1 =   41
 STRESS PERIOD=  1 TIMESTEP=913 LAYER=  1 ZONE=  2 ACTIVE CELLS= 1200 NUMBER OF EQUATIONS=    1200
 SOLVING FOR ZETA FOR LAYER     2 ZONE     2

     617 UPPER PART EQS.       626 LOWER PART EQS.    BAND WIDTH + 1 =   34
 STRESS PERIOD=  1 TIMESTEP=913 LAYER=  2 ZONE=  2 ACTIVE CELLS= 1243 NUMBER OF EQUATIONS=    1243

 SOLVING FOR HEAD 

 NO OUTPUT CONTROL FOR STRESS PERIOD    1   TIME STEP  914
 SOLVING FOR ZETA FOR LAYER     1 ZONE     2

     601 UPPER PART EQS.       616 LOWER PART EQS.    BAND WIDTH + 1 =   41
 STRESS PERIOD=  1 TIMESTEP=914 LAYER=  1 ZONE=  2 ACTIVE CELLS= 1217 NUMBER OF EQUATIONS=    1217
 SOLVING FOR ZETA FOR LAYER     2 ZONE     2

     621 UPPER PART EQS.       626 LOWER PART EQS.    BAND WIDTH + 1 =   34
 STRESS PERIOD=  1 TIMESTEP=914 LAYER=  2 ZONE=  2 ACTIVE CELLS= 1247 NUMBER OF EQUATIONS=    1247

 SOLVING FOR HEAD 

 NO OUTPUT CONTROL FOR STRESS PERIOD    1   TIME STEP  915
 SOLVING FOR ZETA FOR LAYER     1 ZONE     2

     602 UPPER PART EQS.       602 LOWER PART EQS.    BAND WIDTH + 1 =   25
 STRESS PERIOD=  1 TIMESTEP=915 LAYER=  1 ZONE=  2 ACTIVE CELLS= 1204 NUMBER OF EQUATIONS=    1204
 SOLVING FOR ZETA FOR LAYER     2 ZONE     2

     621 UPPER PART EQS.       626 LOWER PART EQS.    BAND WIDTH + 1 =   34
 STRESS PERIOD=  1 TIMESTEP=915 LAYER=  2 ZONE=  2 ACTIVE CELLS= 1247 NUMBER OF EQUATIONS=    1247

 SOLVING FOR HEAD 

 NO OUTPUT CONTROL FOR STRESS PERIOD    1   TIME STEP  916
 SOLVING FOR ZETA FOR LAYER     1 ZONE     2

     599 UPPER PART EQS.       618 LOWER PART EQS.    BAND WIDTH + 1 =   38
 STRESS PERIOD=  1 TIMESTEP=916 LAYER=  1 ZONE=  2 ACTIVE CELLS= 1217 NUMBER OF EQUATIONS=    1217
 SOLVING FOR ZETA FOR LAYER     2 ZONE     2

     621 UPPER PART EQS.       628 LOWER PART EQS.    BAND WIDTH + 1 =   34
 STRESS PERIOD=  1 TIMESTEP=916 LAYER=  2 ZONE=  2 ACTIVE CELLS= 1249 NUMBER OF EQUATIONS=    1249

 SOLVING FOR HEAD 

 NO OUTPUT CONTROL FOR STRESS PERIOD    1   TIME STEP  917
 SOLVING FOR ZETA FOR LAYER     1 ZONE     2

     598 UPPER PART EQS.       606 LOWER PART EQS.    BAND WIDTH + 1 =   29
 STRESS PERIOD=  1 TIMESTEP=917 LAYER=  1 ZONE=  2 ACTIVE CELLS= 1204 NUMBER OF EQUATIONS=    1204
 SOLVING FOR ZETA FOR LAYER     2 ZONE     2

     619 UPPER PART EQS.       628 LOWER PART EQS.    BAND WIDTH + 1 =   34
 STRESS PERIOD=  1 TIMESTEP=917 LAYER=  2 ZONE=  2 ACTIVE CELLS= 1247 NUMBER OF EQUATIONS=    1247

 SOLVING FOR HEAD 

 NO OUTPUT CONTROL FOR STRESS PERIOD    1   TIME STEP  918
 SOLVING FOR ZETA FOR LAYER     1 ZONE     2

     606 UPPER PART EQS.       622 LOWER PART EQS.    BAND WIDTH + 1 =   42
 STRESS PERIOD=  1 TIMESTEP=918 LAYER=  1 ZONE=  2 ACTIVE CELLS= 1228 NUMBER OF EQUATIONS=    1228
 SOLVING FOR ZETA FOR LAYER     2 ZONE     2

     619 UPPER PART EQS.       628 LOWER PART EQS.    BAND WIDTH + 1 =   34
 STRESS PERIOD=  1 TIMESTEP=918 LAYER=  2 ZONE=  2 ACTIVE CELLS= 1247 NUMBER OF EQUATIONS=    1247

 SOLVING FOR HEAD 

 NO OUTPUT CONTROL FOR STRESS PERIOD    1   TIME STEP  919
 SOLVING FOR ZETA FOR LAYER     1 ZONE     2

     610 UPPER PART EQS.       596 LOWER PART EQS.    BAND WIDTH + 1 =   35
 STRESS PERIOD=  1 TIMESTEP=919 LAYER=  1 ZONE=  2 ACTIVE CELLS= 1206 NUMBER OF EQUATIONS=    1206
 SOLVING FOR ZETA FOR LAYER     2 ZONE     2

     621 UPPER PART EQS.       628 LOWER PART EQS.    BAND WIDTH + 1 =   34
 STRESS PERIOD=  1 TIMESTEP=919 LAYER=  2 ZONE=  2 ACTIVE CELLS= 1249 NUMBER OF EQUATIONS=    1249

 SOLVING FOR HEAD 

 NO OUTPUT CONTROL FOR STRESS PERIOD    1   TIME STEP  920
 SOLVING FOR ZETA FOR LAYER     1 ZONE     2

     614 UPPER PART EQS.       612 LOWER PART EQS.    BAND WIDTH + 1 =   29
 STRESS PERIOD=  1 TIMESTEP=920 LAYER=  1 ZONE=  2 ACTIVE CELLS= 1226 NUMBER OF EQUATIONS=    1226
 SOLVING FOR ZETA FOR LAYER     2 ZONE     2

     621 UPPER PART EQS.       630 LOWER PART EQS.    BAND WIDTH + 1 =   34
 STRESS PERIOD=  1 TIMESTEP=920 LAYER=  2 ZONE=  2 ACTIVE CELLS= 1251 NUMBER OF EQUATIONS=    1251

 SOLVING FOR HEAD 

 NO OUTPUT CONTROL FOR STRESS PERIOD    1   TIME STEP  921
 SOLVING FOR ZETA FOR LAYER     1 ZONE     2

     614 UPPER PART EQS.       600 LOWER PART EQS.    BAND WIDTH + 1 =   31
 STRESS PERIOD=  1 TIMESTEP=921 LAYER=  1 ZONE=  2 ACTIVE CELLS= 1214 NUMBER OF EQUATIONS=    1214
 SOLVING FOR ZETA FOR LAYER     2 ZONE     2

     621 UPPER PART EQS.       629 LOWER PART EQS.    BAND WIDTH + 1 =   34
 STRESS PERIOD=  1 TIMESTEP=921 LAYER=  2 ZONE=  2 ACTIVE CELLS= 1250 NUMBER OF EQUATIONS=    1250

 SOLVING FOR HEAD 

 NO OUTPUT CONTROL FOR STRESS PERIOD    1   TIME STEP  922
 SOLVING FOR ZETA FOR LAYER     1 ZONE     2

     613 UPPER PART EQS.       606 LOWER PART EQS.    BAND WIDTH + 1 =   25
 STRESS PERIOD=  1 TIMESTEP=922 LAYER=  1 ZONE=  2 ACTIVE CELLS= 1219 NUMBER OF EQUATIONS=    1219
 SOLVING FOR ZETA FOR LAYER     2 ZONE     2

     621 UPPER PART EQS.       632 LOWER PART EQS.    BAND WIDTH + 1 =   34
 STRESS PERIOD=  1 TIMESTEP=922 LAYER=  2 ZONE=  2 ACTIVE CELLS= 1253 NUMBER OF EQUATIONS=    1253

 SOLVING FOR HEAD 

 NO OUTPUT CONTROL FOR STRESS PERIOD    1   TIME STEP  923
 SOLVING FOR ZETA FOR LAYER     1 ZONE     2

     608 UPPER PART EQS.       608 LOWER PART EQS.    BAND WIDTH + 1 =   24
 STRESS PERIOD=  1 TIMESTEP=923 LAYER=  1 ZONE=  2 ACTIVE CELLS= 1216 NUMBER OF EQUATIONS=    1216
 SOLVING FOR ZETA FOR LAYER     2 ZONE     2

     621 UPPER PART EQS.       631 LOWER PART EQS.    BAND WIDTH + 1 =   34
 STRESS PERIOD=  1 TIMESTEP=923 LAYER=  2 ZONE=  2 ACTIVE CELLS= 1252 NUMBER OF EQUATIONS=    1252

 SOLVING FOR HEAD 

 NO OUTPUT CONTROL FOR STRESS PERIOD    1   TIME STEP  924
 SOLVING FOR ZETA FOR LAYER     1 ZONE     2

     600 UPPER PART EQS.       626 LOWER PART EQS.    BAND WIDTH + 1 =   47
 STRESS PERIOD=  1 TIMESTEP=924 LAYER=  1 ZONE=  2 ACTIVE CELLS= 1226 NUMBER OF EQUATIONS=    1226
 SOLVING FOR ZETA FOR LAYER     2 ZONE     2

     621 UPPER PART EQS.       632 LOWER PART EQS.    BAND WIDTH + 1 =   34
 STRESS PERIOD=  1 TIMESTEP=924 LAYER=  2 ZONE=  2 ACTIVE CELLS= 1253 NUMBER OF EQUATIONS=    1253

 SOLVING FOR HEAD 

 NO OUTPUT CONTROL FOR STRESS PERIOD    1   TIME STEP  925
 SOLVING FOR ZETA FOR LAYER     1 ZONE     2

     607 UPPER PART EQS.       600 LOWER PART EQS.    BAND WIDTH + 1 =   32
 STRESS PERIOD=  1 TIMESTEP=925 LAYER=  1 ZONE=  2 ACTIVE CELLS= 1207 NUMBER OF EQUATIONS=    1207
 SOLVING FOR ZETA FOR LAYER     2 ZONE     2

     621 UPPER PART EQS.       632 LOWER PART EQS.    BAND WIDTH + 1 =   34
 STRESS PERIOD=  1 TIMESTEP=925 LAYER=  2 ZONE=  2 ACTIVE CELLS= 1253 NUMBER OF EQUATIONS=    1253

 SOLVING FOR HEAD 

 NO OUTPUT CONTROL FOR STRESS PERIOD    1   TIME STEP  926
 SOLVING FOR ZETA FOR LAYER     1 ZONE     2

     606 UPPER PART EQS.       624 LOWER PART EQS.    BAND WIDTH + 1 =   41
 STRESS PERIOD=  1 TIMESTEP=926 LAYER=  1 ZONE=  2 ACTIVE CELLS= 1230 NUMBER OF EQUATIONS=    1230
 SOLVING FOR ZETA FOR LAYER     2 ZONE     2

     621 UPPER PART EQS.       632 LOWER PART EQS.    BAND WIDTH + 1 =   34
 STRESS PERIOD=  1 TIMESTEP=926 LAYER=  2 ZONE=  2 ACTIVE CELLS= 1253 NUMBER OF EQUATIONS=    1253

 SOLVING FOR HEAD 

 NO OUTPUT CONTROL FOR STRESS PERIOD    1   TIME STEP  927
 SOLVING FOR ZETA FOR LAYER     1 ZONE     2

     600 UPPER PART EQS.       604 LOWER PART EQS.    BAND WIDTH + 1 =   28
 STRESS PERIOD=  1 TIMESTEP=927 LAYER=  1 ZONE=  2 ACTIVE CELLS= 1204 NUMBER OF EQUATIONS=    1204
 SOLVING FOR ZETA FOR LAYER     2 ZONE     2

     621 UPPER PART EQS.       630 LOWER PART EQS.    BAND WIDTH + 1 =   34
 STRESS PERIOD=  1 TIMESTEP=927 LAYER=  2 ZONE=  2 ACTIVE CELLS= 1251 NUMBER OF EQUATIONS=    1251

 SOLVING FOR HEAD 

 NO OUTPUT CONTROL FOR STRESS PERIOD    1   TIME STEP  928
 SOLVING FOR ZETA FOR LAYER     1 ZONE     2

     610 UPPER PART EQS.       606 LOWER PART EQS.    BAND WIDTH + 1 =   27
 STRESS PERIOD=  1 TIMESTEP=928 LAYER=  1 ZONE=  2 ACTIVE CELLS= 1216 NUMBER OF EQUATIONS=    1216
 SOLVING FOR ZETA FOR LAYER     2 ZONE     2

     621 UPPER PART EQS.       632 LOWER PART EQS.    BAND WIDTH + 1 =   34
 STRESS PERIOD=  1 TIMESTEP=928 LAYER=  2 ZONE=  2 ACTIVE CELLS= 1253 NUMBER OF EQUATIONS=    1253

 SOLVING FOR HEAD 

 NO OUTPUT CONTROL FOR STRESS PERIOD    1   TIME STEP  929
 SOLVING FOR ZETA FOR LAYER     1 ZONE     2

     608 UPPER PART EQS.       602 LOWER PART EQS.    BAND WIDTH + 1 =   27
 STRESS PERIOD=  1 TIMESTEP=929 LAYER=  1 ZONE=  2 ACTIVE CELLS= 1210 NUMBER OF EQUATIONS=    1210
 SOLVING FOR ZETA FOR LAYER     2 ZONE     2

     621 UPPER PART EQS.       632 LOWER PART EQS.    BAND WIDTH + 1 =   34
 STRESS PERIOD=  1 TIMESTEP=929 LAYER=  2 ZONE=  2 ACTIVE CELLS= 1253 NUMBER OF EQUATIONS=    1253

 SOLVING FOR HEAD 

 NO OUTPUT CONTROL FOR STRESS PERIOD    1   TIME STEP  930
 SOLVING FOR ZETA FOR LAYER     1 ZONE     2

     603 UPPER PART EQS.       610 LOWER PART EQS.    BAND WIDTH + 1 =   34
 STRESS PERIOD=  1 TIMESTEP=930 LAYER=  1 ZONE=  2 ACTIVE CELLS= 1213 NUMBER OF EQUATIONS=    1213
 SOLVING FOR ZETA FOR LAYER     2 ZONE     2

     621 UPPER PART EQS.       632 LOWER PART EQS.    BAND WIDTH + 1 =   34
 STRESS PERIOD=  1 TIMESTEP=930 LAYER=  2 ZONE=  2 ACTIVE CELLS= 1253 NUMBER OF EQUATIONS=    1253

 SOLVING FOR HEAD 

 NO OUTPUT CONTROL FOR STRESS PERIOD    1   TIME STEP  931
 SOLVING FOR ZETA FOR LAYER     1 ZONE     2

     602 UPPER PART EQS.       602 LOWER PART EQS.    BAND WIDTH + 1 =   27
 STRESS PERIOD=  1 TIMESTEP=931 LAYER=  1 ZONE=  2 ACTIVE CELLS= 1204 NUMBER OF EQUATIONS=    1204
 SOLVING FOR ZETA FOR LAYER     2 ZONE     2

     621 UPPER PART EQS.       632 LOWER PART EQS.    BAND WIDTH + 1 =   34
 STRESS PERIOD=  1 TIMESTEP=931 LAYER=  2 ZONE=  2 ACTIVE CELLS= 1253 NUMBER OF EQUATIONS=    1253

 SOLVING FOR HEAD 

 NO OUTPUT CONTROL FOR STRESS PERIOD    1   TIME STEP  932
 SOLVING FOR ZETA FOR LAYER     1 ZONE     2

     594 UPPER PART EQS.       622 LOWER PART EQS.    BAND WIDTH + 1 =   47
 STRESS PERIOD=  1 TIMESTEP=932 LAYER=  1 ZONE=  2 ACTIVE CELLS= 1216 NUMBER OF EQUATIONS=    1216
 SOLVING FOR ZETA FOR LAYER     2 ZONE     2

     621 UPPER PART EQS.       632 LOWER PART EQS.    BAND WIDTH + 1 =   34
 STRESS PERIOD=  1 TIMESTEP=932 LAYER=  2 ZONE=  2 ACTIVE CELLS= 1253 NUMBER OF EQUATIONS=    1253

 SOLVING FOR HEAD 

 NO OUTPUT CONTROL FOR STRESS PERIOD    1   TIME STEP  933
 SOLVING FOR ZETA FOR LAYER     1 ZONE     2

     601 UPPER PART EQS.       610 LOWER PART EQS.    BAND WIDTH + 1 =   30
 STRESS PERIOD=  1 TIMESTEP=933 LAYER=  1 ZONE=  2 ACTIVE CELLS= 1211 NUMBER OF EQUATIONS=    1211
 SOLVING FOR ZETA FOR LAYER     2 ZONE     2

     621 UPPER PART EQS.       632 LOWER PART EQS.    BAND WIDTH + 1 =   34
 STRESS PERIOD=  1 TIMESTEP=933 LAYER=  2 ZONE=  2 ACTIVE CELLS= 1253 NUMBER OF EQUATIONS=    1253

 SOLVING FOR HEAD 

 NO OUTPUT CONTROL FOR STRESS PERIOD    1   TIME STEP  934
 SOLVING FOR ZETA FOR LAYER     1 ZONE     2

     606 UPPER PART EQS.       616 LOWER PART EQS.    BAND WIDTH + 1 =   32
 STRESS PERIOD=  1 TIMESTEP=934 LAYER=  1 ZONE=  2 ACTIVE CELLS= 1222 NUMBER OF EQUATIONS=    1222
 SOLVING FOR ZETA FOR LAYER     2 ZONE     2

     621 UPPER PART EQS.       632 LOWER PART EQS.    BAND WIDTH + 1 =   34
 STRESS PERIOD=  1 TIMESTEP=934 LAYER=  2 ZONE=  2 ACTIVE CELLS= 1253 NUMBER OF EQUATIONS=    1253

 SOLVING FOR HEAD 

 NO OUTPUT CONTROL FOR STRESS PERIOD    1   TIME STEP  935
 SOLVING FOR ZETA FOR LAYER     1 ZONE     2

     604 UPPER PART EQS.       606 LOWER PART EQS.    BAND WIDTH + 1 =   27
 STRESS PERIOD=  1 TIMESTEP=935 LAYER=  1 ZONE=  2 ACTIVE CELLS= 1210 NUMBER OF EQUATIONS=    1210
 SOLVING FOR ZETA FOR LAYER     2 ZONE     2

     621 UPPER PART EQS.       632 LOWER PART EQS.    BAND WIDTH + 1 =   34
 STRESS PERIOD=  1 TIMESTEP=935 LAYER=  2 ZONE=  2 ACTIVE CELLS= 1253 NUMBER OF EQUATIONS=    1253

 SOLVING FOR HEAD 

 NO OUTPUT CONTROL FOR STRESS PERIOD    1   TIME STEP  936
 SOLVING FOR ZETA FOR LAYER     1 ZONE     2

     610 UPPER PART EQS.       614 LOWER PART EQS.    BAND WIDTH + 1 =   31
 STRESS PERIOD=  1 TIMESTEP=936 LAYER=  1 ZONE=  2 ACTIVE CELLS= 1224 NUMBER OF EQUATIONS=    1224
 SOLVING FOR ZETA FOR LAYER     2 ZONE     2

     621 UPPER PART EQS.       632 LOWER PART EQS.    BAND WIDTH + 1 =   34
 STRESS PERIOD=  1 TIMESTEP=936 LAYER=  2 ZONE=  2 ACTIVE CELLS= 1253 NUMBER OF EQUATIONS=    1253

 SOLVING FOR HEAD 

 NO OUTPUT CONTROL FOR STRESS PERIOD    1   TIME STEP  937
 SOLVING FOR ZETA FOR LAYER     1 ZONE     2

     618 UPPER PART EQS.       596 LOWER PART EQS.    BAND WIDTH + 1 =   41
 STRESS PERIOD=  1 TIMESTEP=937 LAYER=  1 ZONE=  2 ACTIVE CELLS= 1214 NUMBER OF EQUATIONS=    1214
 SOLVING FOR ZETA FOR LAYER     2 ZONE     2

     621 UPPER PART EQS.       632 LOWER PART EQS.    BAND WIDTH + 1 =   34
 STRESS PERIOD=  1 TIMESTEP=937 LAYER=  2 ZONE=  2 ACTIVE CELLS= 1253 NUMBER OF EQUATIONS=    1253

 SOLVING FOR HEAD 

 NO OUTPUT CONTROL FOR STRESS PERIOD    1   TIME STEP  938
 SOLVING FOR ZETA FOR LAYER     1 ZONE     2

     611 UPPER PART EQS.       612 LOWER PART EQS.    BAND WIDTH + 1 =   31
 STRESS PERIOD=  1 TIMESTEP=938 LAYER=  1 ZONE=  2 ACTIVE CELLS= 1223 NUMBER OF EQUATIONS=    1223
 SOLVING FOR ZETA FOR LAYER     2 ZONE     2

     621 UPPER PART EQS.       632 LOWER PART EQS.    BAND WIDTH + 1 =   34
 STRESS PERIOD=  1 TIMESTEP=938 LAYER=  2 ZONE=  2 ACTIVE CELLS= 1253 NUMBER OF EQUATIONS=    1253

 SOLVING FOR HEAD 

 NO OUTPUT CONTROL FOR STRESS PERIOD    1   TIME STEP  939
 SOLVING FOR ZETA FOR LAYER     1 ZONE     2

     604 UPPER PART EQS.       610 LOWER PART EQS.    BAND WIDTH + 1 =   30
 STRESS PERIOD=  1 TIMESTEP=939 LAYER=  1 ZONE=  2 ACTIVE CELLS= 1214 NUMBER OF EQUATIONS=    1214
 SOLVING FOR ZETA FOR LAYER     2 ZONE     2

     617 UPPER PART EQS.       632 LOWER PART EQS.    BAND WIDTH + 1 =   34
 STRESS PERIOD=  1 TIMESTEP=939 LAYER=  2 ZONE=  2 ACTIVE CELLS= 1249 NUMBER OF EQUATIONS=    1249

 SOLVING FOR HEAD 

 NO OUTPUT CONTROL FOR STRESS PERIOD    1   TIME STEP  940
 SOLVING FOR ZETA FOR LAYER     1 ZONE     2

     608 UPPER PART EQS.       616 LOWER PART EQS.    BAND WIDTH + 1 =   31
 STRESS PERIOD=  1 TIMESTEP=940 LAYER=  1 ZONE=  2 ACTIVE CELLS= 1224 NUMBER OF EQUATIONS=    1224
 SOLVING FOR ZETA FOR LAYER     2 ZONE     2

     621 UPPER PART EQS.       632 LOWER PART EQS.    BAND WIDTH + 1 =   34
 STRESS PERIOD=  1 TIMESTEP=940 LAYER=  2 ZONE=  2 ACTIVE CELLS= 1253 NUMBER OF EQUATIONS=    1253

 SOLVING FOR HEAD 

 NO OUTPUT CONTROL FOR STRESS PERIOD    1   TIME STEP  941
 SOLVING FOR ZETA FOR LAYER     1 ZONE     2

     609 UPPER PART EQS.       608 LOWER PART EQS.    BAND WIDTH + 1 =   24
 STRESS PERIOD=  1 TIMESTEP=941 LAYER=  1 ZONE=  2 ACTIVE CELLS= 1217 NUMBER OF EQUATIONS=    1217
 SOLVING FOR ZETA FOR LAYER     2 ZONE     2

     621 UPPER PART EQS.       632 LOWER PART EQS.    BAND WIDTH + 1 =   34
 STRESS PERIOD=  1 TIMESTEP=941 LAYER=  2 ZONE=  2 ACTIVE CELLS= 1253 NUMBER OF EQUATIONS=    1253

 SOLVING FOR HEAD 

 NO OUTPUT CONTROL FOR STRESS PERIOD    1   TIME STEP  942
 SOLVING FOR ZETA FOR LAYER     1 ZONE     2

     606 UPPER PART EQS.       624 LOWER PART EQS.    BAND WIDTH + 1 =   42
 STRESS PERIOD=  1 TIMESTEP=942 LAYER=  1 ZONE=  2 ACTIVE CELLS= 1230 NUMBER OF EQUATIONS=    1230
 SOLVING FOR ZETA FOR LAYER     2 ZONE     2

     621 UPPER PART EQS.       632 LOWER PART EQS.    BAND WIDTH + 1 =   34
 STRESS PERIOD=  1 TIMESTEP=942 LAYER=  2 ZONE=  2 ACTIVE CELLS= 1253 NUMBER OF EQUATIONS=    1253

 SOLVING FOR HEAD 

 NO OUTPUT CONTROL FOR STRESS PERIOD    1   TIME STEP  943
 SOLVING FOR ZETA FOR LAYER     1 ZONE     2

     608 UPPER PART EQS.       600 LOWER PART EQS.    BAND WIDTH + 1 =   30
 STRESS PERIOD=  1 TIMESTEP=943 LAYER=  1 ZONE=  2 ACTIVE CELLS= 1208 NUMBER OF EQUATIONS=    1208
 SOLVING FOR ZETA FOR LAYER     2 ZONE     2

     621 UPPER PART EQS.       632 LOWER PART EQS.    BAND WIDTH + 1 =   34
 STRESS PERIOD=  1 TIMESTEP=943 LAYER=  2 ZONE=  2 ACTIVE CELLS= 1253 NUMBER OF EQUATIONS=    1253

 SOLVING FOR HEAD 

 NO OUTPUT CONTROL FOR STRESS PERIOD    1   TIME STEP  944
 SOLVING FOR ZETA FOR LAYER     1 ZONE     2

     608 UPPER PART EQS.       612 LOWER PART EQS.    BAND WIDTH + 1 =   31
 STRESS PERIOD=  1 TIMESTEP=944 LAYER=  1 ZONE=  2 ACTIVE CELLS= 1220 NUMBER OF EQUATIONS=    1220
 SOLVING FOR ZETA FOR LAYER     2 ZONE     2

     621 UPPER PART EQS.       632 LOWER PART EQS.    BAND WIDTH + 1 =   34
 STRESS PERIOD=  1 TIMESTEP=944 LAYER=  2 ZONE=  2 ACTIVE CELLS= 1253 NUMBER OF EQUATIONS=    1253

 SOLVING FOR HEAD 

 NO OUTPUT CONTROL FOR STRESS PERIOD    1   TIME STEP  945
 SOLVING FOR ZETA FOR LAYER     1 ZONE     2

     608 UPPER PART EQS.       604 LOWER PART EQS.    BAND WIDTH + 1 =   26
 STRESS PERIOD=  1 TIMESTEP=945 LAYER=  1 ZONE=  2 ACTIVE CELLS= 1212 NUMBER OF EQUATIONS=    1212
 SOLVING FOR ZETA FOR LAYER     2 ZONE     2

     621 UPPER PART EQS.       630 LOWER PART EQS.    BAND WIDTH + 1 =   34
 STRESS PERIOD=  1 TIMESTEP=945 LAYER=  2 ZONE=  2 ACTIVE CELLS= 1251 NUMBER OF EQUATIONS=    1251

 SOLVING FOR HEAD 

 NO OUTPUT CONTROL FOR STRESS PERIOD    1   TIME STEP  946
 SOLVING FOR ZETA FOR LAYER     1 ZONE     2

     605 UPPER PART EQS.       606 LOWER PART EQS.    BAND WIDTH + 1 =   27
 STRESS PERIOD=  1 TIMESTEP=946 LAYER=  1 ZONE=  2 ACTIVE CELLS= 1211 NUMBER OF EQUATIONS=    1211
 SOLVING FOR ZETA FOR LAYER     2 ZONE     2

     621 UPPER PART EQS.       630 LOWER PART EQS.    BAND WIDTH + 1 =   34
 STRESS PERIOD=  1 TIMESTEP=946 LAYER=  2 ZONE=  2 ACTIVE CELLS= 1251 NUMBER OF EQUATIONS=    1251

 SOLVING FOR HEAD 

 NO OUTPUT CONTROL FOR STRESS PERIOD    1   TIME STEP  947
 SOLVING FOR ZETA FOR LAYER     1 ZONE     2

     602 UPPER PART EQS.       610 LOWER PART EQS.    BAND WIDTH + 1 =   29
 STRESS PERIOD=  1 TIMESTEP=947 LAYER=  1 ZONE=  2 ACTIVE CELLS= 1212 NUMBER OF EQUATIONS=    1212
 SOLVING FOR ZETA FOR LAYER     2 ZONE     2

     621 UPPER PART EQS.       630 LOWER PART EQS.    BAND WIDTH + 1 =   34
 STRESS PERIOD=  1 TIMESTEP=947 LAYER=  2 ZONE=  2 ACTIVE CELLS= 1251 NUMBER OF EQUATIONS=    1251

 SOLVING FOR HEAD 

 NO OUTPUT CONTROL FOR STRESS PERIOD    1   TIME STEP  948
 SOLVING FOR ZETA FOR LAYER     1 ZONE     2

     592 UPPER PART EQS.       622 LOWER PART EQS.    BAND WIDTH + 1 =   48
 STRESS PERIOD=  1 TIMESTEP=948 LAYER=  1 ZONE=  2 ACTIVE CELLS= 1214 NUMBER OF EQUATIONS=    1214
 SOLVING FOR ZETA FOR LAYER     2 ZONE     2

     621 UPPER PART EQS.       632 LOWER PART EQS.    BAND WIDTH + 1 =   34
 STRESS PERIOD=  1 TIMESTEP=948 LAYER=  2 ZONE=  2 ACTIVE CELLS= 1253 NUMBER OF EQUATIONS=    1253

 SOLVING FOR HEAD 

 NO OUTPUT CONTROL FOR STRESS PERIOD    1   TIME STEP  949
 SOLVING FOR ZETA FOR LAYER     1 ZONE     2

     609 UPPER PART EQS.       602 LOWER PART EQS.    BAND WIDTH + 1 =   32
 STRESS PERIOD=  1 TIMESTEP=949 LAYER=  1 ZONE=  2 ACTIVE CELLS= 1211 NUMBER OF EQUATIONS=    1211
 SOLVING FOR ZETA FOR LAYER     2 ZONE     2

     621 UPPER PART EQS.       632 LOWER PART EQS.    BAND WIDTH + 1 =   34
 STRESS PERIOD=  1 TIMESTEP=949 LAYER=  2 ZONE=  2 ACTIVE CELLS= 1253 NUMBER OF EQUATIONS=    1253

 SOLVING FOR HEAD 

 NO OUTPUT CONTROL FOR STRESS PERIOD    1   TIME STEP  950
 SOLVING FOR ZETA FOR LAYER     1 ZONE     2

     600 UPPER PART EQS.       622 LOWER PART EQS.    BAND WIDTH + 1 =   44
 STRESS PERIOD=  1 TIMESTEP=950 LAYER=  1 ZONE=  2 ACTIVE CELLS= 1222 NUMBER OF EQUATIONS=    1222
 SOLVING FOR ZETA FOR LAYER     2 ZONE     2

     621 UPPER PART EQS.       632 LOWER PART EQS.    BAND WIDTH + 1 =   34
 STRESS PERIOD=  1 TIMESTEP=950 LAYER=  2 ZONE=  2 ACTIVE CELLS= 1253 NUMBER OF EQUATIONS=    1253

 SOLVING FOR HEAD 

 NO OUTPUT CONTROL FOR STRESS PERIOD    1   TIME STEP  951
 SOLVING FOR ZETA FOR LAYER     1 ZONE     2

     606 UPPER PART EQS.       612 LOWER PART EQS.    BAND WIDTH + 1 =   29
 STRESS PERIOD=  1 TIMESTEP=951 LAYER=  1 ZONE=  2 ACTIVE CELLS= 1218 NUMBER OF EQUATIONS=    1218
 SOLVING FOR ZETA FOR LAYER     2 ZONE     2

     621 UPPER PART EQS.       631 LOWER PART EQS.    BAND WIDTH + 1 =   34
 STRESS PERIOD=  1 TIMESTEP=951 LAYER=  2 ZONE=  2 ACTIVE CELLS= 1252 NUMBER OF EQUATIONS=    1252

 SOLVING FOR HEAD 

 NO OUTPUT CONTROL FOR STRESS PERIOD    1   TIME STEP  952
 SOLVING FOR ZETA FOR LAYER     1 ZONE     2

     616 UPPER PART EQS.       604 LOWER PART EQS.    BAND WIDTH + 1 =   32
 STRESS PERIOD=  1 TIMESTEP=952 LAYER=  1 ZONE=  2 ACTIVE CELLS= 1220 NUMBER OF EQUATIONS=    1220
 SOLVING FOR ZETA FOR LAYER     2 ZONE     2

     619 UPPER PART EQS.       630 LOWER PART EQS.    BAND WIDTH + 1 =   34
 STRESS PERIOD=  1 TIMESTEP=952 LAYER=  2 ZONE=  2 ACTIVE CELLS= 1249 NUMBER OF EQUATIONS=    1249

 SOLVING FOR HEAD 

 NO OUTPUT CONTROL FOR STRESS PERIOD    1   TIME STEP  953
 SOLVING FOR ZETA FOR LAYER     1 ZONE     2

     614 UPPER PART EQS.       606 LOWER PART EQS.    BAND WIDTH + 1 =   28
 STRESS PERIOD=  1 TIMESTEP=953 LAYER=  1 ZONE=  2 ACTIVE CELLS= 1220 NUMBER OF EQUATIONS=    1220
 SOLVING FOR ZETA FOR LAYER     2 ZONE     2

     621 UPPER PART EQS.       631 LOWER PART EQS.    BAND WIDTH + 1 =   34
 STRESS PERIOD=  1 TIMESTEP=953 LAYER=  2 ZONE=  2 ACTIVE CELLS= 1252 NUMBER OF EQUATIONS=    1252

 SOLVING FOR HEAD 

 NO OUTPUT CONTROL FOR STRESS PERIOD    1   TIME STEP  954
 SOLVING FOR ZETA FOR LAYER     1 ZONE     2

     612 UPPER PART EQS.       612 LOWER PART EQS.    BAND WIDTH + 1 =   31
 STRESS PERIOD=  1 TIMESTEP=954 LAYER=  1 ZONE=  2 ACTIVE CELLS= 1224 NUMBER OF EQUATIONS=    1224
 SOLVING FOR ZETA FOR LAYER     2 ZONE     2

     621 UPPER PART EQS.       632 LOWER PART EQS.    BAND WIDTH + 1 =   34
 STRESS PERIOD=  1 TIMESTEP=954 LAYER=  2 ZONE=  2 ACTIVE CELLS= 1253 NUMBER OF EQUATIONS=    1253

 SOLVING FOR HEAD 

 NO OUTPUT CONTROL FOR STRESS PERIOD    1   TIME STEP  955
 SOLVING FOR ZETA FOR LAYER     1 ZONE     2

     615 UPPER PART EQS.       600 LOWER PART EQS.    BAND WIDTH + 1 =   34
 STRESS PERIOD=  1 TIMESTEP=955 LAYER=  1 ZONE=  2 ACTIVE CELLS= 1215 NUMBER OF EQUATIONS=    1215
 SOLVING FOR ZETA FOR LAYER     2 ZONE     2

     621 UPPER PART EQS.       632 LOWER PART EQS.    BAND WIDTH + 1 =   34
 STRESS PERIOD=  1 TIMESTEP=955 LAYER=  2 ZONE=  2 ACTIVE CELLS= 1253 NUMBER OF EQUATIONS=    1253

 SOLVING FOR HEAD 

 NO OUTPUT CONTROL FOR STRESS PERIOD    1   TIME STEP  956
 SOLVING FOR ZETA FOR LAYER     1 ZONE     2

     612 UPPER PART EQS.       620 LOWER PART EQS.    BAND WIDTH + 1 =   36
 STRESS PERIOD=  1 TIMESTEP=956 LAYER=  1 ZONE=  2 ACTIVE CELLS= 1232 NUMBER OF EQUATIONS=    1232
 SOLVING FOR ZETA FOR LAYER     2 ZONE     2

     621 UPPER PART EQS.       632 LOWER PART EQS.    BAND WIDTH + 1 =   34
 STRESS PERIOD=  1 TIMESTEP=956 LAYER=  2 ZONE=  2 ACTIVE CELLS= 1253 NUMBER OF EQUATIONS=    1253

 SOLVING FOR HEAD 

 NO OUTPUT CONTROL FOR STRESS PERIOD    1   TIME STEP  957
 SOLVING FOR ZETA FOR LAYER     1 ZONE     2

     596 UPPER PART EQS.       610 LOWER PART EQS.    BAND WIDTH + 1 =   33
 STRESS PERIOD=  1 TIMESTEP=957 LAYER=  1 ZONE=  2 ACTIVE CELLS= 1206 NUMBER OF EQUATIONS=    1206
 SOLVING FOR ZETA FOR LAYER     2 ZONE     2

     621 UPPER PART EQS.       632 LOWER PART EQS.    BAND WIDTH + 1 =   34
 STRESS PERIOD=  1 TIMESTEP=957 LAYER=  2 ZONE=  2 ACTIVE CELLS= 1253 NUMBER OF EQUATIONS=    1253

 SOLVING FOR HEAD 

 NO OUTPUT CONTROL FOR STRESS PERIOD    1   TIME STEP  958
 SOLVING FOR ZETA FOR LAYER     1 ZONE     2

     609 UPPER PART EQS.       616 LOWER PART EQS.    BAND WIDTH + 1 =   32
 STRESS PERIOD=  1 TIMESTEP=958 LAYER=  1 ZONE=  2 ACTIVE CELLS= 1225 NUMBER OF EQUATIONS=    1225
 SOLVING FOR ZETA FOR LAYER     2 ZONE     2

     621 UPPER PART EQS.       632 LOWER PART EQS.    BAND WIDTH + 1 =   34
 STRESS PERIOD=  1 TIMESTEP=958 LAYER=  2 ZONE=  2 ACTIVE CELLS= 1253 NUMBER OF EQUATIONS=    1253

 SOLVING FOR HEAD 

 NO OUTPUT CONTROL FOR STRESS PERIOD    1   TIME STEP  959
 SOLVING FOR ZETA FOR LAYER     1 ZONE     2

     600 UPPER PART EQS.       610 LOWER PART EQS.    BAND WIDTH + 1 =   30
 STRESS PERIOD=  1 TIMESTEP=959 LAYER=  1 ZONE=  2 ACTIVE CELLS= 1210 NUMBER OF EQUATIONS=    1210
 SOLVING FOR ZETA FOR LAYER     2 ZONE     2

     621 UPPER PART EQS.       632 LOWER PART EQS.    BAND WIDTH + 1 =   34
 STRESS PERIOD=  1 TIMESTEP=959 LAYER=  2 ZONE=  2 ACTIVE CELLS= 1253 NUMBER OF EQUATIONS=    1253

 SOLVING FOR HEAD 

 NO OUTPUT CONTROL FOR STRESS PERIOD    1   TIME STEP  960
 SOLVING FOR ZETA FOR LAYER     1 ZONE     2

     604 UPPER PART EQS.       624 LOWER PART EQS.    BAND WIDTH + 1 =   42
 STRESS PERIOD=  1 TIMESTEP=960 LAYER=  1 ZONE=  2 ACTIVE CELLS= 1228 NUMBER OF EQUATIONS=    1228
 SOLVING FOR ZETA FOR LAYER     2 ZONE     2

     621 UPPER PART EQS.       632 LOWER PART EQS.    BAND WIDTH + 1 =   34
 STRESS PERIOD=  1 TIMESTEP=960 LAYER=  2 ZONE=  2 ACTIVE CELLS= 1253 NUMBER OF EQUATIONS=    1253

 SOLVING FOR HEAD 

 NO OUTPUT CONTROL FOR STRESS PERIOD    1   TIME STEP  961
 SOLVING FOR ZETA FOR LAYER     1 ZONE     2

     610 UPPER PART EQS.       590 LOWER PART EQS.    BAND WIDTH + 1 =   43
 STRESS PERIOD=  1 TIMESTEP=961 LAYER=  1 ZONE=  2 ACTIVE CELLS= 1200 NUMBER OF EQUATIONS=    1200
 SOLVING FOR ZETA FOR LAYER     2 ZONE     2

     621 UPPER PART EQS.       632 LOWER PART EQS.    BAND WIDTH + 1 =   34
 STRESS PERIOD=  1 TIMESTEP=961 LAYER=  2 ZONE=  2 ACTIVE CELLS= 1253 NUMBER OF EQUATIONS=    1253

 SOLVING FOR HEAD 

 NO OUTPUT CONTROL FOR STRESS PERIOD    1   TIME STEP  962
 SOLVING FOR ZETA FOR LAYER     1 ZONE     2

     604 UPPER PART EQS.       620 LOWER PART EQS.    BAND WIDTH + 1 =   40
 STRESS PERIOD=  1 TIMESTEP=962 LAYER=  1 ZONE=  2 ACTIVE CELLS= 1224 NUMBER OF EQUATIONS=    1224
 SOLVING FOR ZETA FOR LAYER     2 ZONE     2

     621 UPPER PART EQS.       632 LOWER PART EQS.    BAND WIDTH + 1 =   34
 STRESS PERIOD=  1 TIMESTEP=962 LAYER=  2 ZONE=  2 ACTIVE CELLS= 1253 NUMBER OF EQUATIONS=    1253

 SOLVING FOR HEAD 

 NO OUTPUT CONTROL FOR STRESS PERIOD    1   TIME STEP  963
 SOLVING FOR ZETA FOR LAYER     1 ZONE     2

     608 UPPER PART EQS.       600 LOWER PART EQS.    BAND WIDTH + 1 =   27
 STRESS PERIOD=  1 TIMESTEP=963 LAYER=  1 ZONE=  2 ACTIVE CELLS= 1208 NUMBER OF EQUATIONS=    1208
 SOLVING FOR ZETA FOR LAYER     2 ZONE     2

     621 UPPER PART EQS.       632 LOWER PART EQS.    BAND WIDTH + 1 =   34
 STRESS PERIOD=  1 TIMESTEP=963 LAYER=  2 ZONE=  2 ACTIVE CELLS= 1253 NUMBER OF EQUATIONS=    1253

 SOLVING FOR HEAD 

 NO OUTPUT CONTROL FOR STRESS PERIOD    1   TIME STEP  964
 SOLVING FOR ZETA FOR LAYER     1 ZONE     2

     611 UPPER PART EQS.       612 LOWER PART EQS.    BAND WIDTH + 1 =   28
 STRESS PERIOD=  1 TIMESTEP=964 LAYER=  1 ZONE=  2 ACTIVE CELLS= 1223 NUMBER OF EQUATIONS=    1223
 SOLVING FOR ZETA FOR LAYER     2 ZONE     2

     621 UPPER PART EQS.       632 LOWER PART EQS.    BAND WIDTH + 1 =   34
 STRESS PERIOD=  1 TIMESTEP=964 LAYER=  2 ZONE=  2 ACTIVE CELLS= 1253 NUMBER OF EQUATIONS=    1253

 SOLVING FOR HEAD 

 NO OUTPUT CONTROL FOR STRESS PERIOD    1   TIME STEP  965
 SOLVING FOR ZETA FOR LAYER     1 ZONE     2

     612 UPPER PART EQS.       606 LOWER PART EQS.    BAND WIDTH + 1 =   27
 STRESS PERIOD=  1 TIMESTEP=965 LAYER=  1 ZONE=  2 ACTIVE CELLS= 1218 NUMBER OF EQUATIONS=    1218
 SOLVING FOR ZETA FOR LAYER     2 ZONE     2

     621 UPPER PART EQS.       632 LOWER PART EQS.    BAND WIDTH + 1 =   34
 STRESS PERIOD=  1 TIMESTEP=965 LAYER=  2 ZONE=  2 ACTIVE CELLS= 1253 NUMBER OF EQUATIONS=    1253

 SOLVING FOR HEAD 

 NO OUTPUT CONTROL FOR STRESS PERIOD    1   TIME STEP  966
 SOLVING FOR ZETA FOR LAYER     1 ZONE     2

     598 UPPER PART EQS.       624 LOWER PART EQS.    BAND WIDTH + 1 =   47
 STRESS PERIOD=  1 TIMESTEP=966 LAYER=  1 ZONE=  2 ACTIVE CELLS= 1222 NUMBER OF EQUATIONS=    1222
 SOLVING FOR ZETA FOR LAYER     2 ZONE     2

     621 UPPER PART EQS.       632 LOWER PART EQS.    BAND WIDTH + 1 =   34
 STRESS PERIOD=  1 TIMESTEP=966 LAYER=  2 ZONE=  2 ACTIVE CELLS= 1253 NUMBER OF EQUATIONS=    1253

 SOLVING FOR HEAD 

 NO OUTPUT CONTROL FOR STRESS PERIOD    1   TIME STEP  967
 SOLVING FOR ZETA FOR LAYER     1 ZONE     2

     613 UPPER PART EQS.       604 LOWER PART EQS.    BAND WIDTH + 1 =   30
 STRESS PERIOD=  1 TIMESTEP=967 LAYER=  1 ZONE=  2 ACTIVE CELLS= 1217 NUMBER OF EQUATIONS=    1217
 SOLVING FOR ZETA FOR LAYER     2 ZONE     2

     621 UPPER PART EQS.       632 LOWER PART EQS.    BAND WIDTH + 1 =   34
 STRESS PERIOD=  1 TIMESTEP=967 LAYER=  2 ZONE=  2 ACTIVE CELLS= 1253 NUMBER OF EQUATIONS=    1253

 SOLVING FOR HEAD 

 NO OUTPUT CONTROL FOR STRESS PERIOD    1   TIME STEP  968
 SOLVING FOR ZETA FOR LAYER     1 ZONE     2

     606 UPPER PART EQS.       622 LOWER PART EQS.    BAND WIDTH + 1 =   40
 STRESS PERIOD=  1 TIMESTEP=968 LAYER=  1 ZONE=  2 ACTIVE CELLS= 1228 NUMBER OF EQUATIONS=    1228
 SOLVING FOR ZETA FOR LAYER     2 ZONE     2

     621 UPPER PART EQS.       632 LOWER PART EQS.    BAND WIDTH + 1 =   34
 STRESS PERIOD=  1 TIMESTEP=968 LAYER=  2 ZONE=  2 ACTIVE CELLS= 1253 NUMBER OF EQUATIONS=    1253

 SOLVING FOR HEAD 

 NO OUTPUT CONTROL FOR STRESS PERIOD    1   TIME STEP  969
 SOLVING FOR ZETA FOR LAYER     1 ZONE     2

     614 UPPER PART EQS.       610 LOWER PART EQS.    BAND WIDTH + 1 =   25
 STRESS PERIOD=  1 TIMESTEP=969 LAYER=  1 ZONE=  2 ACTIVE CELLS= 1224 NUMBER OF EQUATIONS=    1224
 SOLVING FOR ZETA FOR LAYER     2 ZONE     2

     621 UPPER PART EQS.       632 LOWER PART EQS.    BAND WIDTH + 1 =   34
 STRESS PERIOD=  1 TIMESTEP=969 LAYER=  2 ZONE=  2 ACTIVE CELLS= 1253 NUMBER OF EQUATIONS=    1253

 SOLVING FOR HEAD 

 NO OUTPUT CONTROL FOR STRESS PERIOD    1   TIME STEP  970
 SOLVING FOR ZETA FOR LAYER     1 ZONE     2

     616 UPPER PART EQS.       604 LOWER PART EQS.    BAND WIDTH + 1 =   31
 STRESS PERIOD=  1 TIMESTEP=970 LAYER=  1 ZONE=  2 ACTIVE CELLS= 1220 NUMBER OF EQUATIONS=    1220
 SOLVING FOR ZETA FOR LAYER     2 ZONE     2

     621 UPPER PART EQS.       632 LOWER PART EQS.    BAND WIDTH + 1 =   34
 STRESS PERIOD=  1 TIMESTEP=970 LAYER=  2 ZONE=  2 ACTIVE CELLS= 1253 NUMBER OF EQUATIONS=    1253

 SOLVING FOR HEAD 

 NO OUTPUT CONTROL FOR STRESS PERIOD    1   TIME STEP  971
 SOLVING FOR ZETA FOR LAYER     1 ZONE     2

     606 UPPER PART EQS.       608 LOWER PART EQS.    BAND WIDTH + 1 =   26
 STRESS PERIOD=  1 TIMESTEP=971 LAYER=  1 ZONE=  2 ACTIVE CELLS= 1214 NUMBER OF EQUATIONS=    1214
 SOLVING FOR ZETA FOR LAYER     2 ZONE     2

     621 UPPER PART EQS.       632 LOWER PART EQS.    BAND WIDTH + 1 =   34
 STRESS PERIOD=  1 TIMESTEP=971 LAYER=  2 ZONE=  2 ACTIVE CELLS= 1253 NUMBER OF EQUATIONS=    1253

 SOLVING FOR HEAD 

 NO OUTPUT CONTROL FOR STRESS PERIOD    1   TIME STEP  972
 SOLVING FOR ZETA FOR LAYER     1 ZONE     2

     610 UPPER PART EQS.       612 LOWER PART EQS.    BAND WIDTH + 1 =   31
 STRESS PERIOD=  1 TIMESTEP=972 LAYER=  1 ZONE=  2 ACTIVE CELLS= 1222 NUMBER OF EQUATIONS=    1222
 SOLVING FOR ZETA FOR LAYER     2 ZONE     2

     621 UPPER PART EQS.       632 LOWER PART EQS.    BAND WIDTH + 1 =   34
 STRESS PERIOD=  1 TIMESTEP=972 LAYER=  2 ZONE=  2 ACTIVE CELLS= 1253 NUMBER OF EQUATIONS=    1253

 SOLVING FOR HEAD 

 NO OUTPUT CONTROL FOR STRESS PERIOD    1   TIME STEP  973
 SOLVING FOR ZETA FOR LAYER     1 ZONE     2

     614 UPPER PART EQS.       598 LOWER PART EQS.    BAND WIDTH + 1 =   38
 STRESS PERIOD=  1 TIMESTEP=973 LAYER=  1 ZONE=  2 ACTIVE CELLS= 1212 NUMBER OF EQUATIONS=    1212
 SOLVING FOR ZETA FOR LAYER     2 ZONE     2

     621 UPPER PART EQS.       632 LOWER PART EQS.    BAND WIDTH + 1 =   34
 STRESS PERIOD=  1 TIMESTEP=973 LAYER=  2 ZONE=  2 ACTIVE CELLS= 1253 NUMBER OF EQUATIONS=    1253

 SOLVING FOR HEAD 

 NO OUTPUT CONTROL FOR STRESS PERIOD    1   TIME STEP  974
 SOLVING FOR ZETA FOR LAYER     1 ZONE     2

     601 UPPER PART EQS.       620 LOWER PART EQS.    BAND WIDTH + 1 =   43
 STRESS PERIOD=  1 TIMESTEP=974 LAYER=  1 ZONE=  2 ACTIVE CELLS= 1221 NUMBER OF EQUATIONS=    1221
 SOLVING FOR ZETA FOR LAYER     2 ZONE     2

     621 UPPER PART EQS.       632 LOWER PART EQS.    BAND WIDTH + 1 =   34
 STRESS PERIOD=  1 TIMESTEP=974 LAYER=  2 ZONE=  2 ACTIVE CELLS= 1253 NUMBER OF EQUATIONS=    1253

 SOLVING FOR HEAD 

 NO OUTPUT CONTROL FOR STRESS PERIOD    1   TIME STEP  975
 SOLVING FOR ZETA FOR LAYER     1 ZONE     2

     594 UPPER PART EQS.       612 LOWER PART EQS.    BAND WIDTH + 1 =   37
 STRESS PERIOD=  1 TIMESTEP=975 LAYER=  1 ZONE=  2 ACTIVE CELLS= 1206 NUMBER OF EQUATIONS=    1206
 SOLVING FOR ZETA FOR LAYER     2 ZONE     2

     621 UPPER PART EQS.       632 LOWER PART EQS.    BAND WIDTH + 1 =   34
 STRESS PERIOD=  1 TIMESTEP=975 LAYER=  2 ZONE=  2 ACTIVE CELLS= 1253 NUMBER OF EQUATIONS=    1253

 SOLVING FOR HEAD 

 NO OUTPUT CONTROL FOR STRESS PERIOD    1   TIME STEP  976
 SOLVING FOR ZETA FOR LAYER     1 ZONE     2

     605 UPPER PART EQS.       616 LOWER PART EQS.    BAND WIDTH + 1 =   33
 STRESS PERIOD=  1 TIMESTEP=976 LAYER=  1 ZONE=  2 ACTIVE CELLS= 1221 NUMBER OF EQUATIONS=    1221
 SOLVING FOR ZETA FOR LAYER     2 ZONE     2

     621 UPPER PART EQS.       632 LOWER PART EQS.    BAND WIDTH + 1 =   34
 STRESS PERIOD=  1 TIMESTEP=976 LAYER=  2 ZONE=  2 ACTIVE CELLS= 1253 NUMBER OF EQUATIONS=    1253

 SOLVING FOR HEAD 

 NO OUTPUT CONTROL FOR STRESS PERIOD    1   TIME STEP  977
 SOLVING FOR ZETA FOR LAYER     1 ZONE     2

     608 UPPER PART EQS.       608 LOWER PART EQS.    BAND WIDTH + 1 =   24
 STRESS PERIOD=  1 TIMESTEP=977 LAYER=  1 ZONE=  2 ACTIVE CELLS= 1216 NUMBER OF EQUATIONS=    1216
 SOLVING FOR ZETA FOR LAYER     2 ZONE     2

     621 UPPER PART EQS.       632 LOWER PART EQS.    BAND WIDTH + 1 =   34
 STRESS PERIOD=  1 TIMESTEP=977 LAYER=  2 ZONE=  2 ACTIVE CELLS= 1253 NUMBER OF EQUATIONS=    1253

 SOLVING FOR HEAD 

 NO OUTPUT CONTROL FOR STRESS PERIOD    1   TIME STEP  978
 SOLVING FOR ZETA FOR LAYER     1 ZONE     2

     606 UPPER PART EQS.       624 LOWER PART EQS.    BAND WIDTH + 1 =   42
 STRESS PERIOD=  1 TIMESTEP=978 LAYER=  1 ZONE=  2 ACTIVE CELLS= 1230 NUMBER OF EQUATIONS=    1230
 SOLVING FOR ZETA FOR LAYER     2 ZONE     2

     621 UPPER PART EQS.       632 LOWER PART EQS.    BAND WIDTH + 1 =   34
 STRESS PERIOD=  1 TIMESTEP=978 LAYER=  2 ZONE=  2 ACTIVE CELLS= 1253 NUMBER OF EQUATIONS=    1253

 SOLVING FOR HEAD 

 NO OUTPUT CONTROL FOR STRESS PERIOD    1   TIME STEP  979
 SOLVING FOR ZETA FOR LAYER     1 ZONE     2

     614 UPPER PART EQS.       603 LOWER PART EQS.    BAND WIDTH + 1 =   32
 STRESS PERIOD=  1 TIMESTEP=979 LAYER=  1 ZONE=  2 ACTIVE CELLS= 1217 NUMBER OF EQUATIONS=    1217
 SOLVING FOR ZETA FOR LAYER     2 ZONE     2

     621 UPPER PART EQS.       632 LOWER PART EQS.    BAND WIDTH + 1 =   34
 STRESS PERIOD=  1 TIMESTEP=979 LAYER=  2 ZONE=  2 ACTIVE CELLS= 1253 NUMBER OF EQUATIONS=    1253

 SOLVING FOR HEAD 

 NO OUTPUT CONTROL FOR STRESS PERIOD    1   TIME STEP  980
 SOLVING FOR ZETA FOR LAYER     1 ZONE     2

     614 UPPER PART EQS.       611 LOWER PART EQS.    BAND WIDTH + 1 =   26
 STRESS PERIOD=  1 TIMESTEP=980 LAYER=  1 ZONE=  2 ACTIVE CELLS= 1225 NUMBER OF EQUATIONS=    1225
 SOLVING FOR ZETA FOR LAYER     2 ZONE     2

     621 UPPER PART EQS.       632 LOWER PART EQS.    BAND WIDTH + 1 =   34
 STRESS PERIOD=  1 TIMESTEP=980 LAYER=  2 ZONE=  2 ACTIVE CELLS= 1253 NUMBER OF EQUATIONS=    1253

 SOLVING FOR HEAD 

 NO OUTPUT CONTROL FOR STRESS PERIOD    1   TIME STEP  981
 SOLVING FOR ZETA FOR LAYER     1 ZONE     2

     616 UPPER PART EQS.       606 LOWER PART EQS.    BAND WIDTH + 1 =   29
 STRESS PERIOD=  1 TIMESTEP=981 LAYER=  1 ZONE=  2 ACTIVE CELLS= 1222 NUMBER OF EQUATIONS=    1222
 SOLVING FOR ZETA FOR LAYER     2 ZONE     2

     621 UPPER PART EQS.       632 LOWER PART EQS.    BAND WIDTH + 1 =   34
 STRESS PERIOD=  1 TIMESTEP=981 LAYER=  2 ZONE=  2 ACTIVE CELLS= 1253 NUMBER OF EQUATIONS=    1253

 SOLVING FOR HEAD 

 NO OUTPUT CONTROL FOR STRESS PERIOD    1   TIME STEP  982
 SOLVING FOR ZETA FOR LAYER     1 ZONE     2

     614 UPPER PART EQS.       606 LOWER PART EQS.    BAND WIDTH + 1 =   26
 STRESS PERIOD=  1 TIMESTEP=982 LAYER=  1 ZONE=  2 ACTIVE CELLS= 1220 NUMBER OF EQUATIONS=    1220
 SOLVING FOR ZETA FOR LAYER     2 ZONE     2

     621 UPPER PART EQS.       632 LOWER PART EQS.    BAND WIDTH + 1 =   34
 STRESS PERIOD=  1 TIMESTEP=982 LAYER=  2 ZONE=  2 ACTIVE CELLS= 1253 NUMBER OF EQUATIONS=    1253

 SOLVING FOR HEAD 

 NO OUTPUT CONTROL FOR STRESS PERIOD    1   TIME STEP  983
 SOLVING FOR ZETA FOR LAYER     1 ZONE     2

     612 UPPER PART EQS.       606 LOWER PART EQS.    BAND WIDTH + 1 =   25
 STRESS PERIOD=  1 TIMESTEP=983 LAYER=  1 ZONE=  2 ACTIVE CELLS= 1218 NUMBER OF EQUATIONS=    1218
 SOLVING FOR ZETA FOR LAYER     2 ZONE     2

     617 UPPER PART EQS.       632 LOWER PART EQS.    BAND WIDTH + 1 =   34
 STRESS PERIOD=  1 TIMESTEP=983 LAYER=  2 ZONE=  2 ACTIVE CELLS= 1249 NUMBER OF EQUATIONS=    1249

 SOLVING FOR HEAD 

 NO OUTPUT CONTROL FOR STRESS PERIOD    1   TIME STEP  984
 SOLVING FOR ZETA FOR LAYER     1 ZONE     2

     607 UPPER PART EQS.       622 LOWER PART EQS.    BAND WIDTH + 1 =   41
 STRESS PERIOD=  1 TIMESTEP=984 LAYER=  1 ZONE=  2 ACTIVE CELLS= 1229 NUMBER OF EQUATIONS=    1229
 SOLVING FOR ZETA FOR LAYER     2 ZONE     2

     623 UPPER PART EQS.       632 LOWER PART EQS.    BAND WIDTH + 1 =   34
 STRESS PERIOD=  1 TIMESTEP=984 LAYER=  2 ZONE=  2 ACTIVE CELLS= 1255 NUMBER OF EQUATIONS=    1255

 SOLVING FOR HEAD 

 NO OUTPUT CONTROL FOR STRESS PERIOD    1   TIME STEP  985
 SOLVING FOR ZETA FOR LAYER     1 ZONE     2

     608 UPPER PART EQS.       602 LOWER PART EQS.    BAND WIDTH + 1 =   33
 STRESS PERIOD=  1 TIMESTEP=985 LAYER=  1 ZONE=  2 ACTIVE CELLS= 1210 NUMBER OF EQUATIONS=    1210
 SOLVING FOR ZETA FOR LAYER     2 ZONE     2

     623 UPPER PART EQS.       632 LOWER PART EQS.    BAND WIDTH + 1 =   34
 STRESS PERIOD=  1 TIMESTEP=985 LAYER=  2 ZONE=  2 ACTIVE CELLS= 1255 NUMBER OF EQUATIONS=    1255

 SOLVING FOR HEAD 

 NO OUTPUT CONTROL FOR STRESS PERIOD    1   TIME STEP  986
 SOLVING FOR ZETA FOR LAYER     1 ZONE     2

     595 UPPER PART EQS.       622 LOWER PART EQS.    BAND WIDTH + 1 =   48
 STRESS PERIOD=  1 TIMESTEP=986 LAYER=  1 ZONE=  2 ACTIVE CELLS= 1217 NUMBER OF EQUATIONS=    1217
 SOLVING FOR ZETA FOR LAYER     2 ZONE     2

     623 UPPER PART EQS.       632 LOWER PART EQS.    BAND WIDTH + 1 =   34
 STRESS PERIOD=  1 TIMESTEP=986 LAYER=  2 ZONE=  2 ACTIVE CELLS= 1255 NUMBER OF EQUATIONS=    1255

 SOLVING FOR HEAD 

 NO OUTPUT CONTROL FOR STRESS PERIOD    1   TIME STEP  987
 SOLVING FOR ZETA FOR LAYER     1 ZONE     2

     602 UPPER PART EQS.       612 LOWER PART EQS.    BAND WIDTH + 1 =   31
 STRESS PERIOD=  1 TIMESTEP=987 LAYER=  1 ZONE=  2 ACTIVE CELLS= 1214 NUMBER OF EQUATIONS=    1214
 SOLVING FOR ZETA FOR LAYER     2 ZONE     2

     623 UPPER PART EQS.       632 LOWER PART EQS.    BAND WIDTH + 1 =   34
 STRESS PERIOD=  1 TIMESTEP=987 LAYER=  2 ZONE=  2 ACTIVE CELLS= 1255 NUMBER OF EQUATIONS=    1255

 SOLVING FOR HEAD 

 NO OUTPUT CONTROL FOR STRESS PERIOD    1   TIME STEP  988
 SOLVING FOR ZETA FOR LAYER     1 ZONE     2

     610 UPPER PART EQS.       616 LOWER PART EQS.    BAND WIDTH + 1 =   29
 STRESS PERIOD=  1 TIMESTEP=988 LAYER=  1 ZONE=  2 ACTIVE CELLS= 1226 NUMBER OF EQUATIONS=    1226
 SOLVING FOR ZETA FOR LAYER     2 ZONE     2

     623 UPPER PART EQS.       632 LOWER PART EQS.    BAND WIDTH + 1 =   34
 STRESS PERIOD=  1 TIMESTEP=988 LAYER=  2 ZONE=  2 ACTIVE CELLS= 1255 NUMBER OF EQUATIONS=    1255

 SOLVING FOR HEAD 

 NO OUTPUT CONTROL FOR STRESS PERIOD    1   TIME STEP  989
 SOLVING FOR ZETA FOR LAYER     1 ZONE     2

     610 UPPER PART EQS.       607 LOWER PART EQS.    BAND WIDTH + 1 =   26
 STRESS PERIOD=  1 TIMESTEP=989 LAYER=  1 ZONE=  2 ACTIVE CELLS= 1217 NUMBER OF EQUATIONS=    1217
 SOLVING FOR ZETA FOR LAYER     2 ZONE     2

     625 UPPER PART EQS.       636 LOWER PART EQS.    BAND WIDTH + 1 =   36
 STRESS PERIOD=  1 TIMESTEP=989 LAYER=  2 ZONE=  2 ACTIVE CELLS= 1261 NUMBER OF EQUATIONS=    1261

 SOLVING FOR HEAD 

 NO OUTPUT CONTROL FOR STRESS PERIOD    1   TIME STEP  990
 SOLVING FOR ZETA FOR LAYER     1 ZONE     2

     610 UPPER PART EQS.       613 LOWER PART EQS.    BAND WIDTH + 1 =   31
 STRESS PERIOD=  1 TIMESTEP=990 LAYER=  1 ZONE=  2 ACTIVE CELLS= 1223 NUMBER OF EQUATIONS=    1223
 SOLVING FOR ZETA FOR LAYER     2 ZONE     2

     625 UPPER PART EQS.       636 LOWER PART EQS.    BAND WIDTH + 1 =   36
 STRESS PERIOD=  1 TIMESTEP=990 LAYER=  2 ZONE=  2 ACTIVE CELLS= 1261 NUMBER OF EQUATIONS=    1261

 SOLVING FOR HEAD 

 NO OUTPUT CONTROL FOR STRESS PERIOD    1   TIME STEP  991
 SOLVING FOR ZETA FOR LAYER     1 ZONE     2

     614 UPPER PART EQS.       600 LOWER PART EQS.    BAND WIDTH + 1 =   34
 STRESS PERIOD=  1 TIMESTEP=991 LAYER=  1 ZONE=  2 ACTIVE CELLS= 1214 NUMBER OF EQUATIONS=    1214
 SOLVING FOR ZETA FOR LAYER     2 ZONE     2

     625 UPPER PART EQS.       636 LOWER PART EQS.    BAND WIDTH + 1 =   36
 STRESS PERIOD=  1 TIMESTEP=991 LAYER=  2 ZONE=  2 ACTIVE CELLS= 1261 NUMBER OF EQUATIONS=    1261

 SOLVING FOR HEAD 

 NO OUTPUT CONTROL FOR STRESS PERIOD    1   TIME STEP  992
 SOLVING FOR ZETA FOR LAYER     1 ZONE     2

     614 UPPER PART EQS.       612 LOWER PART EQS.    BAND WIDTH + 1 =   28
 STRESS PERIOD=  1 TIMESTEP=992 LAYER=  1 ZONE=  2 ACTIVE CELLS= 1226 NUMBER OF EQUATIONS=    1226
 SOLVING FOR ZETA FOR LAYER     2 ZONE     2

     629 UPPER PART EQS.       636 LOWER PART EQS.    BAND WIDTH + 1 =   36
 STRESS PERIOD=  1 TIMESTEP=992 LAYER=  2 ZONE=  2 ACTIVE CELLS= 1265 NUMBER OF EQUATIONS=    1265

 SOLVING FOR HEAD 

 NO OUTPUT CONTROL FOR STRESS PERIOD    1   TIME STEP  993
 SOLVING FOR ZETA FOR LAYER     1 ZONE     2

     614 UPPER PART EQS.       606 LOWER PART EQS.    BAND WIDTH + 1 =   27
 STRESS PERIOD=  1 TIMESTEP=993 LAYER=  1 ZONE=  2 ACTIVE CELLS= 1220 NUMBER OF EQUATIONS=    1220
 SOLVING FOR ZETA FOR LAYER     2 ZONE     2

     629 UPPER PART EQS.       636 LOWER PART EQS.    BAND WIDTH + 1 =   36
 STRESS PERIOD=  1 TIMESTEP=993 LAYER=  2 ZONE=  2 ACTIVE CELLS= 1265 NUMBER OF EQUATIONS=    1265

 SOLVING FOR HEAD 

 NO OUTPUT CONTROL FOR STRESS PERIOD    1   TIME STEP  994
 SOLVING FOR ZETA FOR LAYER     1 ZONE     2

     613 UPPER PART EQS.       614 LOWER PART EQS.    BAND WIDTH + 1 =   29
 STRESS PERIOD=  1 TIMESTEP=994 LAYER=  1 ZONE=  2 ACTIVE CELLS= 1227 NUMBER OF EQUATIONS=    1227
 SOLVING FOR ZETA FOR LAYER     2 ZONE     2

     629 UPPER PART EQS.       636 LOWER PART EQS.    BAND WIDTH + 1 =   36
 STRESS PERIOD=  1 TIMESTEP=994 LAYER=  2 ZONE=  2 ACTIVE CELLS= 1265 NUMBER OF EQUATIONS=    1265

 SOLVING FOR HEAD 

 NO OUTPUT CONTROL FOR STRESS PERIOD    1   TIME STEP  995
 SOLVING FOR ZETA FOR LAYER     1 ZONE     2

     607 UPPER PART EQS.       610 LOWER PART EQS.    BAND WIDTH + 1 =   26
 STRESS PERIOD=  1 TIMESTEP=995 LAYER=  1 ZONE=  2 ACTIVE CELLS= 1217 NUMBER OF EQUATIONS=    1217
 SOLVING FOR ZETA FOR LAYER     2 ZONE     2

     629 UPPER PART EQS.       632 LOWER PART EQS.    BAND WIDTH + 1 =   36
 STRESS PERIOD=  1 TIMESTEP=995 LAYER=  2 ZONE=  2 ACTIVE CELLS= 1261 NUMBER OF EQUATIONS=    1261

 SOLVING FOR HEAD 

 NO OUTPUT CONTROL FOR STRESS PERIOD    1   TIME STEP  996
 SOLVING FOR ZETA FOR LAYER     1 ZONE     2

     602 UPPER PART EQS.       624 LOWER PART EQS.    BAND WIDTH + 1 =   45
 STRESS PERIOD=  1 TIMESTEP=996 LAYER=  1 ZONE=  2 ACTIVE CELLS= 1226 NUMBER OF EQUATIONS=    1226
 SOLVING FOR ZETA FOR LAYER     2 ZONE     2

     629 UPPER PART EQS.       636 LOWER PART EQS.    BAND WIDTH + 1 =   36
 STRESS PERIOD=  1 TIMESTEP=996 LAYER=  2 ZONE=  2 ACTIVE CELLS= 1265 NUMBER OF EQUATIONS=    1265

 SOLVING FOR HEAD 

 NO OUTPUT CONTROL FOR STRESS PERIOD    1   TIME STEP  997
 SOLVING FOR ZETA FOR LAYER     1 ZONE     2

     610 UPPER PART EQS.       602 LOWER PART EQS.    BAND WIDTH + 1 =   32
 STRESS PERIOD=  1 TIMESTEP=997 LAYER=  1 ZONE=  2 ACTIVE CELLS= 1212 NUMBER OF EQUATIONS=    1212
 SOLVING FOR ZETA FOR LAYER     2 ZONE     2

     629 UPPER PART EQS.       636 LOWER PART EQS.    BAND WIDTH + 1 =   36
 STRESS PERIOD=  1 TIMESTEP=997 LAYER=  2 ZONE=  2 ACTIVE CELLS= 1265 NUMBER OF EQUATIONS=    1265

 SOLVING FOR HEAD 

 NO OUTPUT CONTROL FOR STRESS PERIOD    1   TIME STEP  998
 SOLVING FOR ZETA FOR LAYER     1 ZONE     2

     604 UPPER PART EQS.       622 LOWER PART EQS.    BAND WIDTH + 1 =   41
 STRESS PERIOD=  1 TIMESTEP=998 LAYER=  1 ZONE=  2 ACTIVE CELLS= 1226 NUMBER OF EQUATIONS=    1226
 SOLVING FOR ZETA FOR LAYER     2 ZONE     2

     629 UPPER PART EQS.       636 LOWER PART EQS.    BAND WIDTH + 1 =   36
 STRESS PERIOD=  1 TIMESTEP=998 LAYER=  2 ZONE=  2 ACTIVE CELLS= 1265 NUMBER OF EQUATIONS=    1265

 SOLVING FOR HEAD 

 NO OUTPUT CONTROL FOR STRESS PERIOD    1   TIME STEP  999
 SOLVING FOR ZETA FOR LAYER     1 ZONE     2

     606 UPPER PART EQS.       612 LOWER PART EQS.    BAND WIDTH + 1 =   28
 STRESS PERIOD=  1 TIMESTEP=999 LAYER=  1 ZONE=  2 ACTIVE CELLS= 1218 NUMBER OF EQUATIONS=    1218
 SOLVING FOR ZETA FOR LAYER     2 ZONE     2

     629 UPPER PART EQS.       636 LOWER PART EQS.    BAND WIDTH + 1 =   36
 STRESS PERIOD=  1 TIMESTEP=999 LAYER=  2 ZONE=  2 ACTIVE CELLS= 1265 NUMBER OF EQUATIONS=    1265

 SOLVING FOR HEAD 

 OUTPUT CONTROL FOR STRESS PERIOD    1   TIME STEP 1000
    PRINT BUDGET
    SAVE HEAD FOR ALL LAYERS
 SOLVING FOR ZETA FOR LAYER     1 ZONE     2

     614 UPPER PART EQS.       615 LOWER PART EQS.    BAND WIDTH + 1 =   27
 STRESS PERIOD=  1 TIMESTEP=*** LAYER=  1 ZONE=  2 ACTIVE CELLS= 1229 NUMBER OF EQUATIONS=    1229
 SOLVING FOR ZETA FOR LAYER     2 ZONE     2

     629 UPPER PART EQS.       636 LOWER PART EQS.    BAND WIDTH + 1 =   36
 STRESS PERIOD=  1 TIMESTEP=*** LAYER=  2 ZONE=  2 ACTIVE CELLS= 1265 NUMBER OF EQUATIONS=    1265
 UBUDSV SAVING "      ZETASRF  1" ON UNIT 55 AT TIME STEP***, STRESS PERIOD    1


                      VOLUMETRIC SWI ZONE BUDGET FOR ENTIRE MODEL
                     AT END OF TIME STEP 1000 IN STRESS PERIOD   1
                                      ZONE     1
  -----------------------------------------------------------------------------------

        CUMULATIVE VOLUMES      L**3       RATES FOR THIS TIME STEP      L**3/T
        ------------------                 ------------------------

              IN:                                      IN:
              ---                                      ---
             BOUNDARIES =   122798224.0000            BOUNDARIES =        1681.0000
          CONSTANT HEAD =           0.0000         CONSTANT HEAD =           0.0000
            ZONE CHANGE =      440210.0938           ZONE CHANGE =           4.9083
       ZONE CHG TIP/TOE =      406640.4062      ZONE CHG TIP/TOE =           3.5898
            ZONE MIXING =           0.0000           ZONE MIXING =           0.0000

               TOTAL IN =   123645072.0000              TOTAL IN =        1689.4980

             OUT:                                     OUT:
             ----                                     ----
             BOUNDARIES =   105141744.0000            BOUNDARIES =        1673.7094
          CONSTANT HEAD =           0.0000         CONSTANT HEAD =           0.0000
            ZONE CHANGE =    18824616.0000           ZONE CHANGE =          12.2382
       ZONE CHG TIP/TOE =      416995.1250      ZONE CHG TIP/TOE =           3.5898
            ZONE MIXING =           0.0000           ZONE MIXING =           0.0000

              TOTAL OUT =   124383352.0000             TOTAL OUT =        1689.5372

               IN - OUT =     -738280.0000              IN - OUT =      -3.9185E-02

    PERCENT DISCREPANCY =          -0.60     PERCENT DISCREPANCY =          -0.00



                      VOLUMETRIC SWI ZONE BUDGET FOR ENTIRE MODEL
                     AT END OF TIME STEP 1000 IN STRESS PERIOD   1
                                      ZONE     2
  -----------------------------------------------------------------------------------

        CUMULATIVE VOLUMES      L**3       RATES FOR THIS TIME STEP      L**3/T
        ------------------                 ------------------------

              IN:                                      IN:
              ---                                      ---
             BOUNDARIES =           0.0000            BOUNDARIES =           0.0000
          CONSTANT HEAD =           0.0000         CONSTANT HEAD =           0.0000
            ZONE CHANGE =    18784222.0000           ZONE CHANGE =          11.4950
       ZONE CHG TIP/TOE =     1157774.1250      ZONE CHG TIP/TOE =           3.6444
            ZONE MIXING =           0.0000           ZONE MIXING =           0.0000

               TOTAL IN =    19941996.0000              TOTAL IN =          15.1395

             OUT:                                     OUT:
             ----                                     ----
             BOUNDARIES =    17655286.0000            BOUNDARIES =           7.2906
          CONSTANT HEAD =           0.0000         CONSTANT HEAD =           0.0000
            ZONE CHANGE =     1180988.1250           ZONE CHANGE =           4.9629
       ZONE CHG TIP/TOE =      366274.0938      ZONE CHG TIP/TOE =           2.8466
            ZONE MIXING =           0.0000           ZONE MIXING =           0.0000

              TOTAL OUT =    19202548.0000             TOTAL OUT =          15.1002

               IN - OUT =      739448.0000              IN - OUT =       3.9291E-02

    PERCENT DISCREPANCY =           3.78     PERCENT DISCREPANCY =           0.26


 HEAD WILL BE SAVED ON UNIT   51 AT END OF TIME STEP 1000, STRESS PERIOD    1
1
  VOLUMETRIC BUDGET FOR ENTIRE MODEL AT END OF TIME STEP 1000, STRESS PERIOD   1
  ------------------------------------------------------------------------------

     CUMULATIVE VOLUMES      L**3       RATES FOR THIS TIME STEP      L**3/T
     ------------------                 ------------------------

           IN:                                      IN:
           ---                                      ---
             STORAGE =           0.0000               STORAGE =           0.0000
       CONSTANT HEAD =           0.0000         CONSTANT HEAD =           0.0000
               WELLS =           0.0000                 WELLS =           0.0000
     HEAD DEP BOUNDS =           0.0000       HEAD DEP BOUNDS =           0.0000
            RECHARGE =   122798224.0000              RECHARGE =        1681.0000
          SWIADDTOCH =           0.0000            SWIADDTOCH =           0.0000

            TOTAL IN =   122798224.0000              TOTAL IN =        1681.0000

          OUT:                                     OUT:
          ----                                     ----
             STORAGE =           0.0000               STORAGE =           0.0000
       CONSTANT HEAD =           0.0000         CONSTANT HEAD =           0.0000
               WELLS =           0.0000                 WELLS =           0.0000
     HEAD DEP BOUNDS =   122798224.0000       HEAD DEP BOUNDS =        1681.0000
            RECHARGE =           0.0000              RECHARGE =           0.0000
          SWIADDTOCH =           0.0000            SWIADDTOCH =           0.0000

           TOTAL OUT =   122798224.0000             TOTAL OUT =        1681.0000

            IN - OUT =           0.0000              IN - OUT =           0.0000

 PERCENT DISCREPANCY =           0.00     PERCENT DISCREPANCY =           0.00






         TIME SUMMARY AT END OF TIME STEP 1000 IN STRESS PERIOD    1
                    SECONDS     MINUTES      HOURS       DAYS        YEARS
                    -----------------------------------------------------------
   TIME STEP LENGTH 6.31152E+06 1.05192E+05  1753.2      73.050     0.20000    
 STRESS PERIOD TIME 6.31154E+09 1.05192E+08 1.75320E+06  73050.      200.00    
         TOTAL TIME 6.31154E+09 1.05192E+08 1.75320E+06  73050.      200.00    
1
1
                            STRESS PERIOD NO.    2, LENGTH =   4383.000    
                            -----------------------------------------------

                              NUMBER OF TIME STEPS =   120

                               MULTIPLIER FOR DELT =     1.000

                            INITIAL TIME STEP SIZE =   36.52500    

 WELL NO.  LAYER   ROW   COL   STRESS RATE         
 --------------------------------------------------
      1      1     31     36      -250.0    
      2      2     31     36       0.000    

      2 WELLS

 REUSING NON-PARAMETER GHB CELLS FROM LAST STRESS PERIOD

   2040 GHB CELLS

 REUSING RECH FROM LAST STRESS PERIOD

 SOLVING FOR HEAD 

 NO OUTPUT CONTROL FOR STRESS PERIOD    2   TIME STEP    1
 SOLVING FOR ZETA FOR LAYER     1 ZONE     2

     612 UPPER PART EQS.       597 LOWER PART EQS.    BAND WIDTH + 1 =   36
 STRESS PERIOD=  2 TIMESTEP=  1 LAYER=  1 ZONE=  2 ACTIVE CELLS= 1209 NUMBER OF EQUATIONS=    1209
 SOLVING FOR ZETA FOR LAYER     2 ZONE     2

     629 UPPER PART EQS.       636 LOWER PART EQS.    BAND WIDTH + 1 =   36
 STRESS PERIOD=  2 TIMESTEP=  1 LAYER=  2 ZONE=  2 ACTIVE CELLS= 1265 NUMBER OF EQUATIONS=    1265

 SOLVING FOR HEAD 

 NO OUTPUT CONTROL FOR STRESS PERIOD    2   TIME STEP    2
 SOLVING FOR ZETA FOR LAYER     1 ZONE     2

     628 UPPER PART EQS.       638 LOWER PART EQS.    BAND WIDTH + 1 =   33
 STRESS PERIOD=  2 TIMESTEP=  2 LAYER=  1 ZONE=  2 ACTIVE CELLS= 1266 NUMBER OF EQUATIONS=    1266
 SOLVING FOR ZETA FOR LAYER     2 ZONE     2

     629 UPPER PART EQS.       636 LOWER PART EQS.    BAND WIDTH + 1 =   36
 STRESS PERIOD=  2 TIMESTEP=  2 LAYER=  2 ZONE=  2 ACTIVE CELLS= 1265 NUMBER OF EQUATIONS=    1265

 SOLVING FOR HEAD 

 NO OUTPUT CONTROL FOR STRESS PERIOD    2   TIME STEP    3
 SOLVING FOR ZETA FOR LAYER     1 ZONE     2

     636 UPPER PART EQS.       638 LOWER PART EQS.    BAND WIDTH + 1 =   27
 STRESS PERIOD=  2 TIMESTEP=  3 LAYER=  1 ZONE=  2 ACTIVE CELLS= 1274 NUMBER OF EQUATIONS=    1274
 SOLVING FOR ZETA FOR LAYER     2 ZONE     2

     629 UPPER PART EQS.       634 LOWER PART EQS.    BAND WIDTH + 1 =   36
 STRESS PERIOD=  2 TIMESTEP=  3 LAYER=  2 ZONE=  2 ACTIVE CELLS= 1263 NUMBER OF EQUATIONS=    1263

 SOLVING FOR HEAD 

 NO OUTPUT CONTROL FOR STRESS PERIOD    2   TIME STEP    4
 SOLVING FOR ZETA FOR LAYER     1 ZONE     2

     628 UPPER PART EQS.       642 LOWER PART EQS.    BAND WIDTH + 1 =   40
 STRESS PERIOD=  2 TIMESTEP=  4 LAYER=  1 ZONE=  2 ACTIVE CELLS= 1270 NUMBER OF EQUATIONS=    1270
 SOLVING FOR ZETA FOR LAYER     2 ZONE     2

     629 UPPER PART EQS.       635 LOWER PART EQS.    BAND WIDTH + 1 =   36
 STRESS PERIOD=  2 TIMESTEP=  4 LAYER=  2 ZONE=  2 ACTIVE CELLS= 1264 NUMBER OF EQUATIONS=    1264

 SOLVING FOR HEAD 

 NO OUTPUT CONTROL FOR STRESS PERIOD    2   TIME STEP    5
 SOLVING FOR ZETA FOR LAYER     1 ZONE     2

     636 UPPER PART EQS.       619 LOWER PART EQS.    BAND WIDTH + 1 =   40
 STRESS PERIOD=  2 TIMESTEP=  5 LAYER=  1 ZONE=  2 ACTIVE CELLS= 1255 NUMBER OF EQUATIONS=    1255
 SOLVING FOR ZETA FOR LAYER     2 ZONE     2

     629 UPPER PART EQS.       636 LOWER PART EQS.    BAND WIDTH + 1 =   36
 STRESS PERIOD=  2 TIMESTEP=  5 LAYER=  2 ZONE=  2 ACTIVE CELLS= 1265 NUMBER OF EQUATIONS=    1265

 SOLVING FOR HEAD 

 NO OUTPUT CONTROL FOR STRESS PERIOD    2   TIME STEP    6
 SOLVING FOR ZETA FOR LAYER     1 ZONE     2

     638 UPPER PART EQS.       642 LOWER PART EQS.    BAND WIDTH + 1 =   29
 STRESS PERIOD=  2 TIMESTEP=  6 LAYER=  1 ZONE=  2 ACTIVE CELLS= 1280 NUMBER OF EQUATIONS=    1280
 SOLVING FOR ZETA FOR LAYER     2 ZONE     2

     629 UPPER PART EQS.       636 LOWER PART EQS.    BAND WIDTH + 1 =   36
 STRESS PERIOD=  2 TIMESTEP=  6 LAYER=  2 ZONE=  2 ACTIVE CELLS= 1265 NUMBER OF EQUATIONS=    1265

 SOLVING FOR HEAD 

 NO OUTPUT CONTROL FOR STRESS PERIOD    2   TIME STEP    7
 SOLVING FOR ZETA FOR LAYER     1 ZONE     2

     640 UPPER PART EQS.       644 LOWER PART EQS.    BAND WIDTH + 1 =   28
 STRESS PERIOD=  2 TIMESTEP=  7 LAYER=  1 ZONE=  2 ACTIVE CELLS= 1284 NUMBER OF EQUATIONS=    1284
 SOLVING FOR ZETA FOR LAYER     2 ZONE     2

     629 UPPER PART EQS.       636 LOWER PART EQS.    BAND WIDTH + 1 =   36
 STRESS PERIOD=  2 TIMESTEP=  7 LAYER=  2 ZONE=  2 ACTIVE CELLS= 1265 NUMBER OF EQUATIONS=    1265

 SOLVING FOR HEAD 

 NO OUTPUT CONTROL FOR STRESS PERIOD    2   TIME STEP    8
 SOLVING FOR ZETA FOR LAYER     1 ZONE     2

     634 UPPER PART EQS.       650 LOWER PART EQS.    BAND WIDTH + 1 =   40
 STRESS PERIOD=  2 TIMESTEP=  8 LAYER=  1 ZONE=  2 ACTIVE CELLS= 1284 NUMBER OF EQUATIONS=    1284
 SOLVING FOR ZETA FOR LAYER     2 ZONE     2

     629 UPPER PART EQS.       636 LOWER PART EQS.    BAND WIDTH + 1 =   36
 STRESS PERIOD=  2 TIMESTEP=  8 LAYER=  2 ZONE=  2 ACTIVE CELLS= 1265 NUMBER OF EQUATIONS=    1265

 SOLVING FOR HEAD 

 NO OUTPUT CONTROL FOR STRESS PERIOD    2   TIME STEP    9
 SOLVING FOR ZETA FOR LAYER     1 ZONE     2

     636 UPPER PART EQS.       639 LOWER PART EQS.    BAND WIDTH + 1 =   27
 STRESS PERIOD=  2 TIMESTEP=  9 LAYER=  1 ZONE=  2 ACTIVE CELLS= 1275 NUMBER OF EQUATIONS=    1275
 SOLVING FOR ZETA FOR LAYER     2 ZONE     2

     629 UPPER PART EQS.       636 LOWER PART EQS.    BAND WIDTH + 1 =   36
 STRESS PERIOD=  2 TIMESTEP=  9 LAYER=  2 ZONE=  2 ACTIVE CELLS= 1265 NUMBER OF EQUATIONS=    1265

 SOLVING FOR HEAD 

 NO OUTPUT CONTROL FOR STRESS PERIOD    2   TIME STEP   10
 SOLVING FOR ZETA FOR LAYER     1 ZONE     2

     646 UPPER PART EQS.       640 LOWER PART EQS.    BAND WIDTH + 1 =   30
 STRESS PERIOD=  2 TIMESTEP= 10 LAYER=  1 ZONE=  2 ACTIVE CELLS= 1286 NUMBER OF EQUATIONS=    1286
 SOLVING FOR ZETA FOR LAYER     2 ZONE     2

     629 UPPER PART EQS.       636 LOWER PART EQS.    BAND WIDTH + 1 =   36
 STRESS PERIOD=  2 TIMESTEP= 10 LAYER=  2 ZONE=  2 ACTIVE CELLS= 1265 NUMBER OF EQUATIONS=    1265

 SOLVING FOR HEAD 

 NO OUTPUT CONTROL FOR STRESS PERIOD    2   TIME STEP   11
 SOLVING FOR ZETA FOR LAYER     1 ZONE     2

     646 UPPER PART EQS.       644 LOWER PART EQS.    BAND WIDTH + 1 =   25
 STRESS PERIOD=  2 TIMESTEP= 11 LAYER=  1 ZONE=  2 ACTIVE CELLS= 1290 NUMBER OF EQUATIONS=    1290
 SOLVING FOR ZETA FOR LAYER     2 ZONE     2

     629 UPPER PART EQS.       636 LOWER PART EQS.    BAND WIDTH + 1 =   36
 STRESS PERIOD=  2 TIMESTEP= 11 LAYER=  2 ZONE=  2 ACTIVE CELLS= 1265 NUMBER OF EQUATIONS=    1265

 SOLVING FOR HEAD 

 NO OUTPUT CONTROL FOR STRESS PERIOD    2   TIME STEP   12
 SOLVING FOR ZETA FOR LAYER     1 ZONE     2

     636 UPPER PART EQS.       646 LOWER PART EQS.    BAND WIDTH + 1 =   36
 STRESS PERIOD=  2 TIMESTEP= 12 LAYER=  1 ZONE=  2 ACTIVE CELLS= 1282 NUMBER OF EQUATIONS=    1282
 SOLVING FOR ZETA FOR LAYER     2 ZONE     2

     629 UPPER PART EQS.       636 LOWER PART EQS.    BAND WIDTH + 1 =   36
 STRESS PERIOD=  2 TIMESTEP= 12 LAYER=  2 ZONE=  2 ACTIVE CELLS= 1265 NUMBER OF EQUATIONS=    1265

 SOLVING FOR HEAD 

 NO OUTPUT CONTROL FOR STRESS PERIOD    2   TIME STEP   13
 SOLVING FOR ZETA FOR LAYER     1 ZONE     2

     650 UPPER PART EQS.       645 LOWER PART EQS.    BAND WIDTH + 1 =   26
 STRESS PERIOD=  2 TIMESTEP= 13 LAYER=  1 ZONE=  2 ACTIVE CELLS= 1295 NUMBER OF EQUATIONS=    1295
 SOLVING FOR ZETA FOR LAYER     2 ZONE     2

     629 UPPER PART EQS.       636 LOWER PART EQS.    BAND WIDTH + 1 =   36
 STRESS PERIOD=  2 TIMESTEP= 13 LAYER=  2 ZONE=  2 ACTIVE CELLS= 1265 NUMBER OF EQUATIONS=    1265

 SOLVING FOR HEAD 

 NO OUTPUT CONTROL FOR STRESS PERIOD    2   TIME STEP   14
 SOLVING FOR ZETA FOR LAYER     1 ZONE     2

     650 UPPER PART EQS.       652 LOWER PART EQS.    BAND WIDTH + 1 =   27
 STRESS PERIOD=  2 TIMESTEP= 14 LAYER=  1 ZONE=  2 ACTIVE CELLS= 1302 NUMBER OF EQUATIONS=    1302
 SOLVING FOR ZETA FOR LAYER     2 ZONE     2

     629 UPPER PART EQS.       636 LOWER PART EQS.    BAND WIDTH + 1 =   36
 STRESS PERIOD=  2 TIMESTEP= 14 LAYER=  2 ZONE=  2 ACTIVE CELLS= 1265 NUMBER OF EQUATIONS=    1265

 SOLVING FOR HEAD 

 NO OUTPUT CONTROL FOR STRESS PERIOD    2   TIME STEP   15
 SOLVING FOR ZETA FOR LAYER     1 ZONE     2

     644 UPPER PART EQS.       646 LOWER PART EQS.    BAND WIDTH + 1 =   26
 STRESS PERIOD=  2 TIMESTEP= 15 LAYER=  1 ZONE=  2 ACTIVE CELLS= 1290 NUMBER OF EQUATIONS=    1290
 SOLVING FOR ZETA FOR LAYER     2 ZONE     2

     629 UPPER PART EQS.       636 LOWER PART EQS.    BAND WIDTH + 1 =   36
 STRESS PERIOD=  2 TIMESTEP= 15 LAYER=  2 ZONE=  2 ACTIVE CELLS= 1265 NUMBER OF EQUATIONS=    1265

 SOLVING FOR HEAD 

 NO OUTPUT CONTROL FOR STRESS PERIOD    2   TIME STEP   16
 SOLVING FOR ZETA FOR LAYER     1 ZONE     2

     646 UPPER PART EQS.       652 LOWER PART EQS.    BAND WIDTH + 1 =   30
 STRESS PERIOD=  2 TIMESTEP= 16 LAYER=  1 ZONE=  2 ACTIVE CELLS= 1298 NUMBER OF EQUATIONS=    1298
 SOLVING FOR ZETA FOR LAYER     2 ZONE     2

     629 UPPER PART EQS.       636 LOWER PART EQS.    BAND WIDTH + 1 =   36
 STRESS PERIOD=  2 TIMESTEP= 16 LAYER=  2 ZONE=  2 ACTIVE CELLS= 1265 NUMBER OF EQUATIONS=    1265

 SOLVING FOR HEAD 

 NO OUTPUT CONTROL FOR STRESS PERIOD    2   TIME STEP   17
 SOLVING FOR ZETA FOR LAYER     1 ZONE     2

     650 UPPER PART EQS.       655 LOWER PART EQS.    BAND WIDTH + 1 =   27
 STRESS PERIOD=  2 TIMESTEP= 17 LAYER=  1 ZONE=  2 ACTIVE CELLS= 1305 NUMBER OF EQUATIONS=    1305
 SOLVING FOR ZETA FOR LAYER     2 ZONE     2

     629 UPPER PART EQS.       636 LOWER PART EQS.    BAND WIDTH + 1 =   36
 STRESS PERIOD=  2 TIMESTEP= 17 LAYER=  2 ZONE=  2 ACTIVE CELLS= 1265 NUMBER OF EQUATIONS=    1265

 SOLVING FOR HEAD 

 NO OUTPUT CONTROL FOR STRESS PERIOD    2   TIME STEP   18
 SOLVING FOR ZETA FOR LAYER     1 ZONE     2

     650 UPPER PART EQS.       660 LOWER PART EQS.    BAND WIDTH + 1 =   32
 STRESS PERIOD=  2 TIMESTEP= 18 LAYER=  1 ZONE=  2 ACTIVE CELLS= 1310 NUMBER OF EQUATIONS=    1310
 SOLVING FOR ZETA FOR LAYER     2 ZONE     2

     629 UPPER PART EQS.       636 LOWER PART EQS.    BAND WIDTH + 1 =   36
 STRESS PERIOD=  2 TIMESTEP= 18 LAYER=  2 ZONE=  2 ACTIVE CELLS= 1265 NUMBER OF EQUATIONS=    1265

 SOLVING FOR HEAD 

 NO OUTPUT CONTROL FOR STRESS PERIOD    2   TIME STEP   19
 SOLVING FOR ZETA FOR LAYER     1 ZONE     2

     648 UPPER PART EQS.       656 LOWER PART EQS.    BAND WIDTH + 1 =   29
 STRESS PERIOD=  2 TIMESTEP= 19 LAYER=  1 ZONE=  2 ACTIVE CELLS= 1304 NUMBER OF EQUATIONS=    1304
 SOLVING FOR ZETA FOR LAYER     2 ZONE     2

     629 UPPER PART EQS.       636 LOWER PART EQS.    BAND WIDTH + 1 =   36
 STRESS PERIOD=  2 TIMESTEP= 19 LAYER=  2 ZONE=  2 ACTIVE CELLS= 1265 NUMBER OF EQUATIONS=    1265

 SOLVING FOR HEAD 

 NO OUTPUT CONTROL FOR STRESS PERIOD    2   TIME STEP   20
 SOLVING FOR ZETA FOR LAYER     1 ZONE     2

     644 UPPER PART EQS.       654 LOWER PART EQS.    BAND WIDTH + 1 =   31
 STRESS PERIOD=  2 TIMESTEP= 20 LAYER=  1 ZONE=  2 ACTIVE CELLS= 1298 NUMBER OF EQUATIONS=    1298
 SOLVING FOR ZETA FOR LAYER     2 ZONE     2

     629 UPPER PART EQS.       636 LOWER PART EQS.    BAND WIDTH + 1 =   36
 STRESS PERIOD=  2 TIMESTEP= 20 LAYER=  2 ZONE=  2 ACTIVE CELLS= 1265 NUMBER OF EQUATIONS=    1265

 SOLVING FOR HEAD 

 NO OUTPUT CONTROL FOR STRESS PERIOD    2   TIME STEP   21
 SOLVING FOR ZETA FOR LAYER     1 ZONE     2

     648 UPPER PART EQS.       658 LOWER PART EQS.    BAND WIDTH + 1 =   31
 STRESS PERIOD=  2 TIMESTEP= 21 LAYER=  1 ZONE=  2 ACTIVE CELLS= 1306 NUMBER OF EQUATIONS=    1306
 SOLVING FOR ZETA FOR LAYER     2 ZONE     2

     629 UPPER PART EQS.       636 LOWER PART EQS.    BAND WIDTH + 1 =   36
 STRESS PERIOD=  2 TIMESTEP= 21 LAYER=  2 ZONE=  2 ACTIVE CELLS= 1265 NUMBER OF EQUATIONS=    1265

 SOLVING FOR HEAD 

 NO OUTPUT CONTROL FOR STRESS PERIOD    2   TIME STEP   22
 SOLVING FOR ZETA FOR LAYER     1 ZONE     2

     652 UPPER PART EQS.       659 LOWER PART EQS.    BAND WIDTH + 1 =   28
 STRESS PERIOD=  2 TIMESTEP= 22 LAYER=  1 ZONE=  2 ACTIVE CELLS= 1311 NUMBER OF EQUATIONS=    1311
 SOLVING FOR ZETA FOR LAYER     2 ZONE     2

     629 UPPER PART EQS.       636 LOWER PART EQS.    BAND WIDTH + 1 =   36
 STRESS PERIOD=  2 TIMESTEP= 22 LAYER=  2 ZONE=  2 ACTIVE CELLS= 1265 NUMBER OF EQUATIONS=    1265

 SOLVING FOR HEAD 

 NO OUTPUT CONTROL FOR STRESS PERIOD    2   TIME STEP   23
 SOLVING FOR ZETA FOR LAYER     1 ZONE     2

     654 UPPER PART EQS.       658 LOWER PART EQS.    BAND WIDTH + 1 =   26
 STRESS PERIOD=  2 TIMESTEP= 23 LAYER=  1 ZONE=  2 ACTIVE CELLS= 1312 NUMBER OF EQUATIONS=    1312
 SOLVING FOR ZETA FOR LAYER     2 ZONE     2

     629 UPPER PART EQS.       636 LOWER PART EQS.    BAND WIDTH + 1 =   36
 STRESS PERIOD=  2 TIMESTEP= 23 LAYER=  2 ZONE=  2 ACTIVE CELLS= 1265 NUMBER OF EQUATIONS=    1265

 SOLVING FOR HEAD 

 NO OUTPUT CONTROL FOR STRESS PERIOD    2   TIME STEP   24
 SOLVING FOR ZETA FOR LAYER     1 ZONE     2

     648 UPPER PART EQS.       660 LOWER PART EQS.    BAND WIDTH + 1 =   34
 STRESS PERIOD=  2 TIMESTEP= 24 LAYER=  1 ZONE=  2 ACTIVE CELLS= 1308 NUMBER OF EQUATIONS=    1308
 SOLVING FOR ZETA FOR LAYER     2 ZONE     2

     629 UPPER PART EQS.       636 LOWER PART EQS.    BAND WIDTH + 1 =   36
 STRESS PERIOD=  2 TIMESTEP= 24 LAYER=  2 ZONE=  2 ACTIVE CELLS= 1265 NUMBER OF EQUATIONS=    1265

 SOLVING FOR HEAD 

 NO OUTPUT CONTROL FOR STRESS PERIOD    2   TIME STEP   25
 SOLVING FOR ZETA FOR LAYER     1 ZONE     2

     658 UPPER PART EQS.       652 LOWER PART EQS.    BAND WIDTH + 1 =   31
 STRESS PERIOD=  2 TIMESTEP= 25 LAYER=  1 ZONE=  2 ACTIVE CELLS= 1310 NUMBER OF EQUATIONS=    1310
 SOLVING FOR ZETA FOR LAYER     2 ZONE     2

     629 UPPER PART EQS.       636 LOWER PART EQS.    BAND WIDTH + 1 =   36
 STRESS PERIOD=  2 TIMESTEP= 25 LAYER=  2 ZONE=  2 ACTIVE CELLS= 1265 NUMBER OF EQUATIONS=    1265

 SOLVING FOR HEAD 

 NO OUTPUT CONTROL FOR STRESS PERIOD    2   TIME STEP   26
 SOLVING FOR ZETA FOR LAYER     1 ZONE     2

     656 UPPER PART EQS.       664 LOWER PART EQS.    BAND WIDTH + 1 =   30
 STRESS PERIOD=  2 TIMESTEP= 26 LAYER=  1 ZONE=  2 ACTIVE CELLS= 1320 NUMBER OF EQUATIONS=    1320
 SOLVING FOR ZETA FOR LAYER     2 ZONE     2

     629 UPPER PART EQS.       636 LOWER PART EQS.    BAND WIDTH + 1 =   36
 STRESS PERIOD=  2 TIMESTEP= 26 LAYER=  2 ZONE=  2 ACTIVE CELLS= 1265 NUMBER OF EQUATIONS=    1265

 SOLVING FOR HEAD 

 NO OUTPUT CONTROL FOR STRESS PERIOD    2   TIME STEP   27
 SOLVING FOR ZETA FOR LAYER     1 ZONE     2

     658 UPPER PART EQS.       659 LOWER PART EQS.    BAND WIDTH + 1 =   27
 STRESS PERIOD=  2 TIMESTEP= 27 LAYER=  1 ZONE=  2 ACTIVE CELLS= 1317 NUMBER OF EQUATIONS=    1317
 SOLVING FOR ZETA FOR LAYER     2 ZONE     2

     629 UPPER PART EQS.       636 LOWER PART EQS.    BAND WIDTH + 1 =   36
 STRESS PERIOD=  2 TIMESTEP= 27 LAYER=  2 ZONE=  2 ACTIVE CELLS= 1265 NUMBER OF EQUATIONS=    1265

 SOLVING FOR HEAD 

 NO OUTPUT CONTROL FOR STRESS PERIOD    2   TIME STEP   28
 SOLVING FOR ZETA FOR LAYER     1 ZONE     2

     656 UPPER PART EQS.       666 LOWER PART EQS.    BAND WIDTH + 1 =   33
 STRESS PERIOD=  2 TIMESTEP= 28 LAYER=  1 ZONE=  2 ACTIVE CELLS= 1322 NUMBER OF EQUATIONS=    1322
 SOLVING FOR ZETA FOR LAYER     2 ZONE     2

     629 UPPER PART EQS.       636 LOWER PART EQS.    BAND WIDTH + 1 =   36
 STRESS PERIOD=  2 TIMESTEP= 28 LAYER=  2 ZONE=  2 ACTIVE CELLS= 1265 NUMBER OF EQUATIONS=    1265

 SOLVING FOR HEAD 

 NO OUTPUT CONTROL FOR STRESS PERIOD    2   TIME STEP   29
 SOLVING FOR ZETA FOR LAYER     1 ZONE     2

     666 UPPER PART EQS.       664 LOWER PART EQS.    BAND WIDTH + 1 =   27
 STRESS PERIOD=  2 TIMESTEP= 29 LAYER=  1 ZONE=  2 ACTIVE CELLS= 1330 NUMBER OF EQUATIONS=    1330
 SOLVING FOR ZETA FOR LAYER     2 ZONE     2

     629 UPPER PART EQS.       636 LOWER PART EQS.    BAND WIDTH + 1 =   36
 STRESS PERIOD=  2 TIMESTEP= 29 LAYER=  2 ZONE=  2 ACTIVE CELLS= 1265 NUMBER OF EQUATIONS=    1265

 SOLVING FOR HEAD 

 NO OUTPUT CONTROL FOR STRESS PERIOD    2   TIME STEP   30
 SOLVING FOR ZETA FOR LAYER     1 ZONE     2

     666 UPPER PART EQS.       662 LOWER PART EQS.    BAND WIDTH + 1 =   29
 STRESS PERIOD=  2 TIMESTEP= 30 LAYER=  1 ZONE=  2 ACTIVE CELLS= 1328 NUMBER OF EQUATIONS=    1328
 SOLVING FOR ZETA FOR LAYER     2 ZONE     2

     629 UPPER PART EQS.       636 LOWER PART EQS.    BAND WIDTH + 1 =   36
 STRESS PERIOD=  2 TIMESTEP= 30 LAYER=  2 ZONE=  2 ACTIVE CELLS= 1265 NUMBER OF EQUATIONS=    1265

 SOLVING FOR HEAD 

 NO OUTPUT CONTROL FOR STRESS PERIOD    2   TIME STEP   31
 SOLVING FOR ZETA FOR LAYER     1 ZONE     2

     662 UPPER PART EQS.       658 LOWER PART EQS.    BAND WIDTH + 1 =   29
 STRESS PERIOD=  2 TIMESTEP= 31 LAYER=  1 ZONE=  2 ACTIVE CELLS= 1320 NUMBER OF EQUATIONS=    1320
 SOLVING FOR ZETA FOR LAYER     2 ZONE     2

     629 UPPER PART EQS.       636 LOWER PART EQS.    BAND WIDTH + 1 =   36
 STRESS PERIOD=  2 TIMESTEP= 31 LAYER=  2 ZONE=  2 ACTIVE CELLS= 1265 NUMBER OF EQUATIONS=    1265

 SOLVING FOR HEAD 

 NO OUTPUT CONTROL FOR STRESS PERIOD    2   TIME STEP   32
 SOLVING FOR ZETA FOR LAYER     1 ZONE     2

     662 UPPER PART EQS.       661 LOWER PART EQS.    BAND WIDTH + 1 =   26
 STRESS PERIOD=  2 TIMESTEP= 32 LAYER=  1 ZONE=  2 ACTIVE CELLS= 1323 NUMBER OF EQUATIONS=    1323
 SOLVING FOR ZETA FOR LAYER     2 ZONE     2

     629 UPPER PART EQS.       636 LOWER PART EQS.    BAND WIDTH + 1 =   36
 STRESS PERIOD=  2 TIMESTEP= 32 LAYER=  2 ZONE=  2 ACTIVE CELLS= 1265 NUMBER OF EQUATIONS=    1265

 SOLVING FOR HEAD 

 NO OUTPUT CONTROL FOR STRESS PERIOD    2   TIME STEP   33
 SOLVING FOR ZETA FOR LAYER     1 ZONE     2

     662 UPPER PART EQS.       664 LOWER PART EQS.    BAND WIDTH + 1 =   25
 STRESS PERIOD=  2 TIMESTEP= 33 LAYER=  1 ZONE=  2 ACTIVE CELLS= 1326 NUMBER OF EQUATIONS=    1326
 SOLVING FOR ZETA FOR LAYER     2 ZONE     2

     629 UPPER PART EQS.       636 LOWER PART EQS.    BAND WIDTH + 1 =   36
 STRESS PERIOD=  2 TIMESTEP= 33 LAYER=  2 ZONE=  2 ACTIVE CELLS= 1265 NUMBER OF EQUATIONS=    1265

 SOLVING FOR HEAD 

 NO OUTPUT CONTROL FOR STRESS PERIOD    2   TIME STEP   34
 SOLVING FOR ZETA FOR LAYER     1 ZONE     2

     666 UPPER PART EQS.       666 LOWER PART EQS.    BAND WIDTH + 1 =   26
 STRESS PERIOD=  2 TIMESTEP= 34 LAYER=  1 ZONE=  2 ACTIVE CELLS= 1332 NUMBER OF EQUATIONS=    1332
 SOLVING FOR ZETA FOR LAYER     2 ZONE     2

     629 UPPER PART EQS.       636 LOWER PART EQS.    BAND WIDTH + 1 =   36
 STRESS PERIOD=  2 TIMESTEP= 34 LAYER=  2 ZONE=  2 ACTIVE CELLS= 1265 NUMBER OF EQUATIONS=    1265

 SOLVING FOR HEAD 

 NO OUTPUT CONTROL FOR STRESS PERIOD    2   TIME STEP   35
 SOLVING FOR ZETA FOR LAYER     1 ZONE     2

     664 UPPER PART EQS.       660 LOWER PART EQS.    BAND WIDTH + 1 =   29
 STRESS PERIOD=  2 TIMESTEP= 35 LAYER=  1 ZONE=  2 ACTIVE CELLS= 1324 NUMBER OF EQUATIONS=    1324
 SOLVING FOR ZETA FOR LAYER     2 ZONE     2

     629 UPPER PART EQS.       636 LOWER PART EQS.    BAND WIDTH + 1 =   36
 STRESS PERIOD=  2 TIMESTEP= 35 LAYER=  2 ZONE=  2 ACTIVE CELLS= 1265 NUMBER OF EQUATIONS=    1265

 SOLVING FOR HEAD 

 NO OUTPUT CONTROL FOR STRESS PERIOD    2   TIME STEP   36
 SOLVING FOR ZETA FOR LAYER     1 ZONE     2

     660 UPPER PART EQS.       664 LOWER PART EQS.    BAND WIDTH + 1 =   28
 STRESS PERIOD=  2 TIMESTEP= 36 LAYER=  1 ZONE=  2 ACTIVE CELLS= 1324 NUMBER OF EQUATIONS=    1324
 SOLVING FOR ZETA FOR LAYER     2 ZONE     2

     629 UPPER PART EQS.       636 LOWER PART EQS.    BAND WIDTH + 1 =   36
 STRESS PERIOD=  2 TIMESTEP= 36 LAYER=  2 ZONE=  2 ACTIVE CELLS= 1265 NUMBER OF EQUATIONS=    1265

 SOLVING FOR HEAD 

 NO OUTPUT CONTROL FOR STRESS PERIOD    2   TIME STEP   37
 SOLVING FOR ZETA FOR LAYER     1 ZONE     2

     666 UPPER PART EQS.       664 LOWER PART EQS.    BAND WIDTH + 1 =   27
 STRESS PERIOD=  2 TIMESTEP= 37 LAYER=  1 ZONE=  2 ACTIVE CELLS= 1330 NUMBER OF EQUATIONS=    1330
 SOLVING FOR ZETA FOR LAYER     2 ZONE     2

     629 UPPER PART EQS.       636 LOWER PART EQS.    BAND WIDTH + 1 =   36
 STRESS PERIOD=  2 TIMESTEP= 37 LAYER=  2 ZONE=  2 ACTIVE CELLS= 1265 NUMBER OF EQUATIONS=    1265

 SOLVING FOR HEAD 

 NO OUTPUT CONTROL FOR STRESS PERIOD    2   TIME STEP   38
 SOLVING FOR ZETA FOR LAYER     1 ZONE     2

     666 UPPER PART EQS.       665 LOWER PART EQS.    BAND WIDTH + 1 =   26
 STRESS PERIOD=  2 TIMESTEP= 38 LAYER=  1 ZONE=  2 ACTIVE CELLS= 1331 NUMBER OF EQUATIONS=    1331
 SOLVING FOR ZETA FOR LAYER     2 ZONE     2

     629 UPPER PART EQS.       636 LOWER PART EQS.    BAND WIDTH + 1 =   36
 STRESS PERIOD=  2 TIMESTEP= 38 LAYER=  2 ZONE=  2 ACTIVE CELLS= 1265 NUMBER OF EQUATIONS=    1265

 SOLVING FOR HEAD 

 NO OUTPUT CONTROL FOR STRESS PERIOD    2   TIME STEP   39
 SOLVING FOR ZETA FOR LAYER     1 ZONE     2

     664 UPPER PART EQS.       664 LOWER PART EQS.    BAND WIDTH + 1 =   25
 STRESS PERIOD=  2 TIMESTEP= 39 LAYER=  1 ZONE=  2 ACTIVE CELLS= 1328 NUMBER OF EQUATIONS=    1328
 SOLVING FOR ZETA FOR LAYER     2 ZONE     2

     629 UPPER PART EQS.       636 LOWER PART EQS.    BAND WIDTH + 1 =   36
 STRESS PERIOD=  2 TIMESTEP= 39 LAYER=  2 ZONE=  2 ACTIVE CELLS= 1265 NUMBER OF EQUATIONS=    1265

 SOLVING FOR HEAD 

 NO OUTPUT CONTROL FOR STRESS PERIOD    2   TIME STEP   40
 SOLVING FOR ZETA FOR LAYER     1 ZONE     2

     662 UPPER PART EQS.       664 LOWER PART EQS.    BAND WIDTH + 1 =   25
 STRESS PERIOD=  2 TIMESTEP= 40 LAYER=  1 ZONE=  2 ACTIVE CELLS= 1326 NUMBER OF EQUATIONS=    1326
 SOLVING FOR ZETA FOR LAYER     2 ZONE     2

     629 UPPER PART EQS.       636 LOWER PART EQS.    BAND WIDTH + 1 =   36
 STRESS PERIOD=  2 TIMESTEP= 40 LAYER=  2 ZONE=  2 ACTIVE CELLS= 1265 NUMBER OF EQUATIONS=    1265

 SOLVING FOR HEAD 

 NO OUTPUT CONTROL FOR STRESS PERIOD    2   TIME STEP   41
 SOLVING FOR ZETA FOR LAYER     1 ZONE     2

     670 UPPER PART EQS.       666 LOWER PART EQS.    BAND WIDTH + 1 =   30
 STRESS PERIOD=  2 TIMESTEP= 41 LAYER=  1 ZONE=  2 ACTIVE CELLS= 1336 NUMBER OF EQUATIONS=    1336
 SOLVING FOR ZETA FOR LAYER     2 ZONE     2

     629 UPPER PART EQS.       636 LOWER PART EQS.    BAND WIDTH + 1 =   36
 STRESS PERIOD=  2 TIMESTEP= 41 LAYER=  2 ZONE=  2 ACTIVE CELLS= 1265 NUMBER OF EQUATIONS=    1265

 SOLVING FOR HEAD 

 NO OUTPUT CONTROL FOR STRESS PERIOD    2   TIME STEP   42
 SOLVING FOR ZETA FOR LAYER     1 ZONE     2

     668 UPPER PART EQS.       670 LOWER PART EQS.    BAND WIDTH + 1 =   26
 STRESS PERIOD=  2 TIMESTEP= 42 LAYER=  1 ZONE=  2 ACTIVE CELLS= 1338 NUMBER OF EQUATIONS=    1338
 SOLVING FOR ZETA FOR LAYER     2 ZONE     2

     629 UPPER PART EQS.       636 LOWER PART EQS.    BAND WIDTH + 1 =   36
 STRESS PERIOD=  2 TIMESTEP= 42 LAYER=  2 ZONE=  2 ACTIVE CELLS= 1265 NUMBER OF EQUATIONS=    1265

 SOLVING FOR HEAD 

 NO OUTPUT CONTROL FOR STRESS PERIOD    2   TIME STEP   43
 SOLVING FOR ZETA FOR LAYER     1 ZONE     2

     662 UPPER PART EQS.       668 LOWER PART EQS.    BAND WIDTH + 1 =   27
 STRESS PERIOD=  2 TIMESTEP= 43 LAYER=  1 ZONE=  2 ACTIVE CELLS= 1330 NUMBER OF EQUATIONS=    1330
 SOLVING FOR ZETA FOR LAYER     2 ZONE     2

     629 UPPER PART EQS.       636 LOWER PART EQS.    BAND WIDTH + 1 =   36
 STRESS PERIOD=  2 TIMESTEP= 43 LAYER=  2 ZONE=  2 ACTIVE CELLS= 1265 NUMBER OF EQUATIONS=    1265

 SOLVING FOR HEAD 

 NO OUTPUT CONTROL FOR STRESS PERIOD    2   TIME STEP   44
 SOLVING FOR ZETA FOR LAYER     1 ZONE     2

     666 UPPER PART EQS.       673 LOWER PART EQS.    BAND WIDTH + 1 =   29
 STRESS PERIOD=  2 TIMESTEP= 44 LAYER=  1 ZONE=  2 ACTIVE CELLS= 1339 NUMBER OF EQUATIONS=    1339
 SOLVING FOR ZETA FOR LAYER     2 ZONE     2

     629 UPPER PART EQS.       636 LOWER PART EQS.    BAND WIDTH + 1 =   36
 STRESS PERIOD=  2 TIMESTEP= 44 LAYER=  2 ZONE=  2 ACTIVE CELLS= 1265 NUMBER OF EQUATIONS=    1265

 SOLVING FOR HEAD 

 NO OUTPUT CONTROL FOR STRESS PERIOD    2   TIME STEP   45
 SOLVING FOR ZETA FOR LAYER     1 ZONE     2

     674 UPPER PART EQS.       671 LOWER PART EQS.    BAND WIDTH + 1 =   31
 STRESS PERIOD=  2 TIMESTEP= 45 LAYER=  1 ZONE=  2 ACTIVE CELLS= 1345 NUMBER OF EQUATIONS=    1345
 SOLVING FOR ZETA FOR LAYER     2 ZONE     2

     629 UPPER PART EQS.       636 LOWER PART EQS.    BAND WIDTH + 1 =   36
 STRESS PERIOD=  2 TIMESTEP= 45 LAYER=  2 ZONE=  2 ACTIVE CELLS= 1265 NUMBER OF EQUATIONS=    1265

 SOLVING FOR HEAD 

 NO OUTPUT CONTROL FOR STRESS PERIOD    2   TIME STEP   46
 SOLVING FOR ZETA FOR LAYER     1 ZONE     2

     676 UPPER PART EQS.       672 LOWER PART EQS.    BAND WIDTH + 1 =   32
 STRESS PERIOD=  2 TIMESTEP= 46 LAYER=  1 ZONE=  2 ACTIVE CELLS= 1348 NUMBER OF EQUATIONS=    1348
 SOLVING FOR ZETA FOR LAYER     2 ZONE     2

     629 UPPER PART EQS.       636 LOWER PART EQS.    BAND WIDTH + 1 =   36
 STRESS PERIOD=  2 TIMESTEP= 46 LAYER=  2 ZONE=  2 ACTIVE CELLS= 1265 NUMBER OF EQUATIONS=    1265

 SOLVING FOR HEAD 

 NO OUTPUT CONTROL FOR STRESS PERIOD    2   TIME STEP   47
 SOLVING FOR ZETA FOR LAYER     1 ZONE     2

     668 UPPER PART EQS.       673 LOWER PART EQS.    BAND WIDTH + 1 =   27
 STRESS PERIOD=  2 TIMESTEP= 47 LAYER=  1 ZONE=  2 ACTIVE CELLS= 1341 NUMBER OF EQUATIONS=    1341
 SOLVING FOR ZETA FOR LAYER     2 ZONE     2

     629 UPPER PART EQS.       634 LOWER PART EQS.    BAND WIDTH + 1 =   35
 STRESS PERIOD=  2 TIMESTEP= 47 LAYER=  2 ZONE=  2 ACTIVE CELLS= 1263 NUMBER OF EQUATIONS=    1263

 SOLVING FOR HEAD 

 NO OUTPUT CONTROL FOR STRESS PERIOD    2   TIME STEP   48
 SOLVING FOR ZETA FOR LAYER     1 ZONE     2

     672 UPPER PART EQS.       679 LOWER PART EQS.    BAND WIDTH + 1 =   29
 STRESS PERIOD=  2 TIMESTEP= 48 LAYER=  1 ZONE=  2 ACTIVE CELLS= 1351 NUMBER OF EQUATIONS=    1351
 SOLVING FOR ZETA FOR LAYER     2 ZONE     2

     629 UPPER PART EQS.       634 LOWER PART EQS.    BAND WIDTH + 1 =   35
 STRESS PERIOD=  2 TIMESTEP= 48 LAYER=  2 ZONE=  2 ACTIVE CELLS= 1263 NUMBER OF EQUATIONS=    1263

 SOLVING FOR HEAD 

 NO OUTPUT CONTROL FOR STRESS PERIOD    2   TIME STEP   49
 SOLVING FOR ZETA FOR LAYER     1 ZONE     2

     678 UPPER PART EQS.       677 LOWER PART EQS.    BAND WIDTH + 1 =   29
 STRESS PERIOD=  2 TIMESTEP= 49 LAYER=  1 ZONE=  2 ACTIVE CELLS= 1355 NUMBER OF EQUATIONS=    1355
 SOLVING FOR ZETA FOR LAYER     2 ZONE     2

     629 UPPER PART EQS.       634 LOWER PART EQS.    BAND WIDTH + 1 =   35
 STRESS PERIOD=  2 TIMESTEP= 49 LAYER=  2 ZONE=  2 ACTIVE CELLS= 1263 NUMBER OF EQUATIONS=    1263

 SOLVING FOR HEAD 

 NO OUTPUT CONTROL FOR STRESS PERIOD    2   TIME STEP   50
 SOLVING FOR ZETA FOR LAYER     1 ZONE     2

     680 UPPER PART EQS.       679 LOWER PART EQS.    BAND WIDTH + 1 =   31
 STRESS PERIOD=  2 TIMESTEP= 50 LAYER=  1 ZONE=  2 ACTIVE CELLS= 1359 NUMBER OF EQUATIONS=    1359
 SOLVING FOR ZETA FOR LAYER     2 ZONE     2

     629 UPPER PART EQS.       634 LOWER PART EQS.    BAND WIDTH + 1 =   35
 STRESS PERIOD=  2 TIMESTEP= 50 LAYER=  2 ZONE=  2 ACTIVE CELLS= 1263 NUMBER OF EQUATIONS=    1263

 SOLVING FOR HEAD 

 NO OUTPUT CONTROL FOR STRESS PERIOD    2   TIME STEP   51
 SOLVING FOR ZETA FOR LAYER     1 ZONE     2

     676 UPPER PART EQS.       679 LOWER PART EQS.    BAND WIDTH + 1 =   27
 STRESS PERIOD=  2 TIMESTEP= 51 LAYER=  1 ZONE=  2 ACTIVE CELLS= 1355 NUMBER OF EQUATIONS=    1355
 SOLVING FOR ZETA FOR LAYER     2 ZONE     2

     629 UPPER PART EQS.       634 LOWER PART EQS.    BAND WIDTH + 1 =   35
 STRESS PERIOD=  2 TIMESTEP= 51 LAYER=  2 ZONE=  2 ACTIVE CELLS= 1263 NUMBER OF EQUATIONS=    1263

 SOLVING FOR HEAD 

 NO OUTPUT CONTROL FOR STRESS PERIOD    2   TIME STEP   52
 SOLVING FOR ZETA FOR LAYER     1 ZONE     2

     676 UPPER PART EQS.       689 LOWER PART EQS.    BAND WIDTH + 1 =   33
 STRESS PERIOD=  2 TIMESTEP= 52 LAYER=  1 ZONE=  2 ACTIVE CELLS= 1365 NUMBER OF EQUATIONS=    1365
 SOLVING FOR ZETA FOR LAYER     2 ZONE     2

     629 UPPER PART EQS.       634 LOWER PART EQS.    BAND WIDTH + 1 =   35
 STRESS PERIOD=  2 TIMESTEP= 52 LAYER=  2 ZONE=  2 ACTIVE CELLS= 1263 NUMBER OF EQUATIONS=    1263

 SOLVING FOR HEAD 

 NO OUTPUT CONTROL FOR STRESS PERIOD    2   TIME STEP   53
 SOLVING FOR ZETA FOR LAYER     1 ZONE     2

     680 UPPER PART EQS.       689 LOWER PART EQS.    BAND WIDTH + 1 =   29
 STRESS PERIOD=  2 TIMESTEP= 53 LAYER=  1 ZONE=  2 ACTIVE CELLS= 1369 NUMBER OF EQUATIONS=    1369
 SOLVING FOR ZETA FOR LAYER     2 ZONE     2

     629 UPPER PART EQS.       634 LOWER PART EQS.    BAND WIDTH + 1 =   35
 STRESS PERIOD=  2 TIMESTEP= 53 LAYER=  2 ZONE=  2 ACTIVE CELLS= 1263 NUMBER OF EQUATIONS=    1263

 SOLVING FOR HEAD 

 NO OUTPUT CONTROL FOR STRESS PERIOD    2   TIME STEP   54
 SOLVING FOR ZETA FOR LAYER     1 ZONE     2

     680 UPPER PART EQS.       685 LOWER PART EQS.    BAND WIDTH + 1 =   26
 STRESS PERIOD=  2 TIMESTEP= 54 LAYER=  1 ZONE=  2 ACTIVE CELLS= 1365 NUMBER OF EQUATIONS=    1365
 SOLVING FOR ZETA FOR LAYER     2 ZONE     2

     629 UPPER PART EQS.       634 LOWER PART EQS.    BAND WIDTH + 1 =   35
 STRESS PERIOD=  2 TIMESTEP= 54 LAYER=  2 ZONE=  2 ACTIVE CELLS= 1263 NUMBER OF EQUATIONS=    1263

 SOLVING FOR HEAD 

 NO OUTPUT CONTROL FOR STRESS PERIOD    2   TIME STEP   55
 SOLVING FOR ZETA FOR LAYER     1 ZONE     2

     678 UPPER PART EQS.       683 LOWER PART EQS.    BAND WIDTH + 1 =   26
 STRESS PERIOD=  2 TIMESTEP= 55 LAYER=  1 ZONE=  2 ACTIVE CELLS= 1361 NUMBER OF EQUATIONS=    1361
 SOLVING FOR ZETA FOR LAYER     2 ZONE     2

     629 UPPER PART EQS.       634 LOWER PART EQS.    BAND WIDTH + 1 =   35
 STRESS PERIOD=  2 TIMESTEP= 55 LAYER=  2 ZONE=  2 ACTIVE CELLS= 1263 NUMBER OF EQUATIONS=    1263

 SOLVING FOR HEAD 

 NO OUTPUT CONTROL FOR STRESS PERIOD    2   TIME STEP   56
 SOLVING FOR ZETA FOR LAYER     1 ZONE     2

     674 UPPER PART EQS.       683 LOWER PART EQS.    BAND WIDTH + 1 =   28
 STRESS PERIOD=  2 TIMESTEP= 56 LAYER=  1 ZONE=  2 ACTIVE CELLS= 1357 NUMBER OF EQUATIONS=    1357
 SOLVING FOR ZETA FOR LAYER     2 ZONE     2

     629 UPPER PART EQS.       636 LOWER PART EQS.    BAND WIDTH + 1 =   35
 STRESS PERIOD=  2 TIMESTEP= 56 LAYER=  2 ZONE=  2 ACTIVE CELLS= 1265 NUMBER OF EQUATIONS=    1265

 SOLVING FOR HEAD 

 NO OUTPUT CONTROL FOR STRESS PERIOD    2   TIME STEP   57
 SOLVING FOR ZETA FOR LAYER     1 ZONE     2

     688 UPPER PART EQS.       689 LOWER PART EQS.    BAND WIDTH + 1 =   29
 STRESS PERIOD=  2 TIMESTEP= 57 LAYER=  1 ZONE=  2 ACTIVE CELLS= 1377 NUMBER OF EQUATIONS=    1377
 SOLVING FOR ZETA FOR LAYER     2 ZONE     2

     629 UPPER PART EQS.       638 LOWER PART EQS.    BAND WIDTH + 1 =   35
 STRESS PERIOD=  2 TIMESTEP= 57 LAYER=  2 ZONE=  2 ACTIVE CELLS= 1267 NUMBER OF EQUATIONS=    1267

 SOLVING FOR HEAD 

 NO OUTPUT CONTROL FOR STRESS PERIOD    2   TIME STEP   58
 SOLVING FOR ZETA FOR LAYER     1 ZONE     2

     684 UPPER PART EQS.       690 LOWER PART EQS.    BAND WIDTH + 1 =   27
 STRESS PERIOD=  2 TIMESTEP= 58 LAYER=  1 ZONE=  2 ACTIVE CELLS= 1374 NUMBER OF EQUATIONS=    1374
 SOLVING FOR ZETA FOR LAYER     2 ZONE     2

     629 UPPER PART EQS.       638 LOWER PART EQS.    BAND WIDTH + 1 =   35
 STRESS PERIOD=  2 TIMESTEP= 58 LAYER=  2 ZONE=  2 ACTIVE CELLS= 1267 NUMBER OF EQUATIONS=    1267

 SOLVING FOR HEAD 

 NO OUTPUT CONTROL FOR STRESS PERIOD    2   TIME STEP   59
 SOLVING FOR ZETA FOR LAYER     1 ZONE     2

     679 UPPER PART EQS.       689 LOWER PART EQS.    BAND WIDTH + 1 =   30
 STRESS PERIOD=  2 TIMESTEP= 59 LAYER=  1 ZONE=  2 ACTIVE CELLS= 1368 NUMBER OF EQUATIONS=    1368
 SOLVING FOR ZETA FOR LAYER     2 ZONE     2

     629 UPPER PART EQS.       638 LOWER PART EQS.    BAND WIDTH + 1 =   35
 STRESS PERIOD=  2 TIMESTEP= 59 LAYER=  2 ZONE=  2 ACTIVE CELLS= 1267 NUMBER OF EQUATIONS=    1267

 SOLVING FOR HEAD 

 OUTPUT CONTROL FOR STRESS PERIOD    2   TIME STEP   60
    PRINT BUDGET
    SAVE HEAD FOR ALL LAYERS
 SOLVING FOR ZETA FOR LAYER     1 ZONE     2

     679 UPPER PART EQS.       689 LOWER PART EQS.    BAND WIDTH + 1 =   30
 STRESS PERIOD=  2 TIMESTEP= 60 LAYER=  1 ZONE=  2 ACTIVE CELLS= 1368 NUMBER OF EQUATIONS=    1368
 SOLVING FOR ZETA FOR LAYER     2 ZONE     2

     629 UPPER PART EQS.       638 LOWER PART EQS.    BAND WIDTH + 1 =   35
 STRESS PERIOD=  2 TIMESTEP= 60 LAYER=  2 ZONE=  2 ACTIVE CELLS= 1267 NUMBER OF EQUATIONS=    1267
 UBUDSV SAVING "      ZETASRF  1" ON UNIT 55 AT TIME STEP 60, STRESS PERIOD    2


                      VOLUMETRIC SWI ZONE BUDGET FOR ENTIRE MODEL
                     AT END OF TIME STEP   60 IN STRESS PERIOD   2
                                      ZONE     1
  -----------------------------------------------------------------------------------

        CUMULATIVE VOLUMES      L**3       RATES FOR THIS TIME STEP      L**3/T
        ------------------                 ------------------------

              IN:                                      IN:
              ---                                      ---
             BOUNDARIES =   126479824.0000            BOUNDARIES =        1680.0000
          CONSTANT HEAD =           0.0000         CONSTANT HEAD =           0.0000
            ZONE CHANGE =      761059.3750           ZONE CHANGE =         132.1580
       ZONE CHG TIP/TOE =      412380.0312      ZONE CHG TIP/TOE =           2.9586
            ZONE MIXING =           0.0000           ZONE MIXING =           0.0000

               TOTAL IN =   127653264.0000              TOTAL IN =        1815.1167

             OUT:                                     OUT:
             ----                                     ----
             BOUNDARIES =   109072664.0000            BOUNDARIES =        1802.1028
          CONSTANT HEAD =           0.0000         CONSTANT HEAD =           0.0000
            ZONE CHANGE =    18896220.0000           ZONE CHANGE =          10.0259
       ZONE CHG TIP/TOE =      422778.3125      ZONE CHG TIP/TOE =           2.9586
            ZONE MIXING =           0.0000           ZONE MIXING =           0.0000

              TOTAL OUT =   128391656.0000             TOTAL OUT =        1815.0873

               IN - OUT =     -738392.0000              IN - OUT =       2.9419E-02

    PERCENT DISCREPANCY =          -0.58     PERCENT DISCREPANCY =           0.00



                      VOLUMETRIC SWI ZONE BUDGET FOR ENTIRE MODEL
                     AT END OF TIME STEP   60 IN STRESS PERIOD   2
                                      ZONE     2
  -----------------------------------------------------------------------------------

        CUMULATIVE VOLUMES      L**3       RATES FOR THIS TIME STEP      L**3/T
        ------------------                 ------------------------

              IN:                                      IN:
              ---                                      ---
             BOUNDARIES =      249184.8750            BOUNDARIES =         122.1028
          CONSTANT HEAD =           0.0000         CONSTANT HEAD =           0.0000
            ZONE CHANGE =    18855442.0000           ZONE CHANGE =           9.8290
       ZONE CHG TIP/TOE =     1163557.7500      ZONE CHG TIP/TOE =           2.9586
            ZONE MIXING =           0.0000           ZONE MIXING =           0.0000

               TOTAL IN =    20268184.0000              TOTAL IN =         134.8904

             OUT:                                     OUT:
             ----                                     ----
             BOUNDARIES =    17655286.0000            BOUNDARIES =           0.0000
          CONSTANT HEAD =           0.0000         CONSTANT HEAD =           0.0000
            ZONE CHANGE =     1501838.5000           ZONE CHANGE =         132.1580
       ZONE CHG TIP/TOE =      371634.1875      ZONE CHG TIP/TOE =           2.7617
            ZONE MIXING =           0.0000           ZONE MIXING =           0.0000

              TOTAL OUT =    19528758.0000             TOTAL OUT =         134.9198

               IN - OUT =      739426.0000              IN - OUT =      -2.9327E-02

    PERCENT DISCREPANCY =           3.72     PERCENT DISCREPANCY =          -0.02


 HEAD WILL BE SAVED ON UNIT   51 AT END OF TIME STEP   60, STRESS PERIOD    2
1
  VOLUMETRIC BUDGET FOR ENTIRE MODEL AT END OF TIME STEP   60, STRESS PERIOD   2
  ------------------------------------------------------------------------------

     CUMULATIVE VOLUMES      L**3       RATES FOR THIS TIME STEP      L**3/T
     ------------------                 ------------------------

           IN:                                      IN:
           ---                                      ---
             STORAGE =           0.0000               STORAGE =           0.0000
       CONSTANT HEAD =           0.0000         CONSTANT HEAD =           0.0000
               WELLS =           0.0000                 WELLS =           0.0000
     HEAD DEP BOUNDS =      249184.8750       HEAD DEP BOUNDS =         122.1028
            RECHARGE =   126482224.0000              RECHARGE =        1681.0000
          SWIADDTOCH =           0.0000            SWIADDTOCH =           0.0000

            TOTAL IN =   126731408.0000              TOTAL IN =        1803.1028

          OUT:                                     OUT:
          ----                                     ----
             STORAGE =           0.0000               STORAGE =           0.0000
       CONSTANT HEAD =           0.0000         CONSTANT HEAD =           0.0000
               WELLS =      547875.0000                 WELLS =         250.0000
     HEAD DEP BOUNDS =   126183448.0000       HEAD DEP BOUNDS =        1553.1028
            RECHARGE =           0.0000              RECHARGE =           0.0000
          SWIADDTOCH =           0.0000            SWIADDTOCH =           0.0000

           TOTAL OUT =   126731320.0000             TOTAL OUT =        1803.1028

            IN - OUT =          88.0000              IN - OUT =           0.0000

 PERCENT DISCREPANCY =           0.00     PERCENT DISCREPANCY =           0.00






         TIME SUMMARY AT END OF TIME STEP   60 IN STRESS PERIOD    2
                    SECONDS     MINUTES      HOURS       DAYS        YEARS
                    -----------------------------------------------------------
   TIME STEP LENGTH 3.15576E+06  52596.      876.60      36.525     0.10000    
 STRESS PERIOD TIME 1.89346E+08 3.15576E+06  52596.      2191.5      6.0000    
         TOTAL TIME 6.50087E+09 1.08348E+08 1.80580E+06  75242.      206.00    
1

 SOLVING FOR HEAD 

 NO OUTPUT CONTROL FOR STRESS PERIOD    2   TIME STEP   61
 SOLVING FOR ZETA FOR LAYER     1 ZONE     2

     683 UPPER PART EQS.       685 LOWER PART EQS.    BAND WIDTH + 1 =   27
 STRESS PERIOD=  2 TIMESTEP= 61 LAYER=  1 ZONE=  2 ACTIVE CELLS= 1368 NUMBER OF EQUATIONS=    1368
 SOLVING FOR ZETA FOR LAYER     2 ZONE     2

     629 UPPER PART EQS.       638 LOWER PART EQS.    BAND WIDTH + 1 =   35
 STRESS PERIOD=  2 TIMESTEP= 61 LAYER=  2 ZONE=  2 ACTIVE CELLS= 1267 NUMBER OF EQUATIONS=    1267

 SOLVING FOR HEAD 

 NO OUTPUT CONTROL FOR STRESS PERIOD    2   TIME STEP   62
 SOLVING FOR ZETA FOR LAYER     1 ZONE     2

     689 UPPER PART EQS.       691 LOWER PART EQS.    BAND WIDTH + 1 =   28
 STRESS PERIOD=  2 TIMESTEP= 62 LAYER=  1 ZONE=  2 ACTIVE CELLS= 1380 NUMBER OF EQUATIONS=    1380
 SOLVING FOR ZETA FOR LAYER     2 ZONE     2

     629 UPPER PART EQS.       638 LOWER PART EQS.    BAND WIDTH + 1 =   35
 STRESS PERIOD=  2 TIMESTEP= 62 LAYER=  2 ZONE=  2 ACTIVE CELLS= 1267 NUMBER OF EQUATIONS=    1267

 SOLVING FOR HEAD 

 NO OUTPUT CONTROL FOR STRESS PERIOD    2   TIME STEP   63
 SOLVING FOR ZETA FOR LAYER     1 ZONE     2

     679 UPPER PART EQS.       687 LOWER PART EQS.    BAND WIDTH + 1 =   27
 STRESS PERIOD=  2 TIMESTEP= 63 LAYER=  1 ZONE=  2 ACTIVE CELLS= 1366 NUMBER OF EQUATIONS=    1366
 SOLVING FOR ZETA FOR LAYER     2 ZONE     2

     629 UPPER PART EQS.       638 LOWER PART EQS.    BAND WIDTH + 1 =   35
 STRESS PERIOD=  2 TIMESTEP= 63 LAYER=  2 ZONE=  2 ACTIVE CELLS= 1267 NUMBER OF EQUATIONS=    1267

 SOLVING FOR HEAD 

 NO OUTPUT CONTROL FOR STRESS PERIOD    2   TIME STEP   64
 SOLVING FOR ZETA FOR LAYER     1 ZONE     2

     682 UPPER PART EQS.       693 LOWER PART EQS.    BAND WIDTH + 1 =   30
 STRESS PERIOD=  2 TIMESTEP= 64 LAYER=  1 ZONE=  2 ACTIVE CELLS= 1375 NUMBER OF EQUATIONS=    1375
 SOLVING FOR ZETA FOR LAYER     2 ZONE     2

     629 UPPER PART EQS.       640 LOWER PART EQS.    BAND WIDTH + 1 =   35
 STRESS PERIOD=  2 TIMESTEP= 64 LAYER=  2 ZONE=  2 ACTIVE CELLS= 1269 NUMBER OF EQUATIONS=    1269

 SOLVING FOR HEAD 

 NO OUTPUT CONTROL FOR STRESS PERIOD    2   TIME STEP   65
 SOLVING FOR ZETA FOR LAYER     1 ZONE     2

     685 UPPER PART EQS.       689 LOWER PART EQS.    BAND WIDTH + 1 =   27
 STRESS PERIOD=  2 TIMESTEP= 65 LAYER=  1 ZONE=  2 ACTIVE CELLS= 1374 NUMBER OF EQUATIONS=    1374
 SOLVING FOR ZETA FOR LAYER     2 ZONE     2

     629 UPPER PART EQS.       640 LOWER PART EQS.    BAND WIDTH + 1 =   35
 STRESS PERIOD=  2 TIMESTEP= 65 LAYER=  2 ZONE=  2 ACTIVE CELLS= 1269 NUMBER OF EQUATIONS=    1269

 SOLVING FOR HEAD 

 NO OUTPUT CONTROL FOR STRESS PERIOD    2   TIME STEP   66
 SOLVING FOR ZETA FOR LAYER     1 ZONE     2

     681 UPPER PART EQS.       689 LOWER PART EQS.    BAND WIDTH + 1 =   28
 STRESS PERIOD=  2 TIMESTEP= 66 LAYER=  1 ZONE=  2 ACTIVE CELLS= 1370 NUMBER OF EQUATIONS=    1370
 SOLVING FOR ZETA FOR LAYER     2 ZONE     2

     629 UPPER PART EQS.       640 LOWER PART EQS.    BAND WIDTH + 1 =   35
 STRESS PERIOD=  2 TIMESTEP= 66 LAYER=  2 ZONE=  2 ACTIVE CELLS= 1269 NUMBER OF EQUATIONS=    1269

 SOLVING FOR HEAD 

 NO OUTPUT CONTROL FOR STRESS PERIOD    2   TIME STEP   67
 SOLVING FOR ZETA FOR LAYER     1 ZONE     2

     679 UPPER PART EQS.       689 LOWER PART EQS.    BAND WIDTH + 1 =   29
 STRESS PERIOD=  2 TIMESTEP= 67 LAYER=  1 ZONE=  2 ACTIVE CELLS= 1368 NUMBER OF EQUATIONS=    1368
 SOLVING FOR ZETA FOR LAYER     2 ZONE     2

     629 UPPER PART EQS.       640 LOWER PART EQS.    BAND WIDTH + 1 =   35
 STRESS PERIOD=  2 TIMESTEP= 67 LAYER=  2 ZONE=  2 ACTIVE CELLS= 1269 NUMBER OF EQUATIONS=    1269

 SOLVING FOR HEAD 

 NO OUTPUT CONTROL FOR STRESS PERIOD    2   TIME STEP   68
 SOLVING FOR ZETA FOR LAYER     1 ZONE     2

     685 UPPER PART EQS.       691 LOWER PART EQS.    BAND WIDTH + 1 =   26
 STRESS PERIOD=  2 TIMESTEP= 68 LAYER=  1 ZONE=  2 ACTIVE CELLS= 1376 NUMBER OF EQUATIONS=    1376
 SOLVING FOR ZETA FOR LAYER     2 ZONE     2

     629 UPPER PART EQS.       640 LOWER PART EQS.    BAND WIDTH + 1 =   35
 STRESS PERIOD=  2 TIMESTEP= 68 LAYER=  2 ZONE=  2 ACTIVE CELLS= 1269 NUMBER OF EQUATIONS=    1269

 SOLVING FOR HEAD 

 NO OUTPUT CONTROL FOR STRESS PERIOD    2   TIME STEP   69
 SOLVING FOR ZETA FOR LAYER     1 ZONE     2

     691 UPPER PART EQS.       693 LOWER PART EQS.    BAND WIDTH + 1 =   29
 STRESS PERIOD=  2 TIMESTEP= 69 LAYER=  1 ZONE=  2 ACTIVE CELLS= 1384 NUMBER OF EQUATIONS=    1384
 SOLVING FOR ZETA FOR LAYER     2 ZONE     2

     629 UPPER PART EQS.       640 LOWER PART EQS.    BAND WIDTH + 1 =   35
 STRESS PERIOD=  2 TIMESTEP= 69 LAYER=  2 ZONE=  2 ACTIVE CELLS= 1269 NUMBER OF EQUATIONS=    1269

 SOLVING FOR HEAD 

 NO OUTPUT CONTROL FOR STRESS PERIOD    2   TIME STEP   70
 SOLVING FOR ZETA FOR LAYER     1 ZONE     2

     690 UPPER PART EQS.       693 LOWER PART EQS.    BAND WIDTH + 1 =   30
 STRESS PERIOD=  2 TIMESTEP= 70 LAYER=  1 ZONE=  2 ACTIVE CELLS= 1383 NUMBER OF EQUATIONS=    1383
 SOLVING FOR ZETA FOR LAYER     2 ZONE     2

     629 UPPER PART EQS.       640 LOWER PART EQS.    BAND WIDTH + 1 =   35
 STRESS PERIOD=  2 TIMESTEP= 70 LAYER=  2 ZONE=  2 ACTIVE CELLS= 1269 NUMBER OF EQUATIONS=    1269

 SOLVING FOR HEAD 

 NO OUTPUT CONTROL FOR STRESS PERIOD    2   TIME STEP   71
 SOLVING FOR ZETA FOR LAYER     1 ZONE     2

     679 UPPER PART EQS.       697 LOWER PART EQS.    BAND WIDTH + 1 =   39
 STRESS PERIOD=  2 TIMESTEP= 71 LAYER=  1 ZONE=  2 ACTIVE CELLS= 1376 NUMBER OF EQUATIONS=    1376
 SOLVING FOR ZETA FOR LAYER     2 ZONE     2

     629 UPPER PART EQS.       642 LOWER PART EQS.    BAND WIDTH + 1 =   35
 STRESS PERIOD=  2 TIMESTEP= 71 LAYER=  2 ZONE=  2 ACTIVE CELLS= 1271 NUMBER OF EQUATIONS=    1271

 SOLVING FOR HEAD 

 NO OUTPUT CONTROL FOR STRESS PERIOD    2   TIME STEP   72
 SOLVING FOR ZETA FOR LAYER     1 ZONE     2

     689 UPPER PART EQS.       703 LOWER PART EQS.    BAND WIDTH + 1 =   34
 STRESS PERIOD=  2 TIMESTEP= 72 LAYER=  1 ZONE=  2 ACTIVE CELLS= 1392 NUMBER OF EQUATIONS=    1392
 SOLVING FOR ZETA FOR LAYER     2 ZONE     2

     629 UPPER PART EQS.       642 LOWER PART EQS.    BAND WIDTH + 1 =   35
 STRESS PERIOD=  2 TIMESTEP= 72 LAYER=  2 ZONE=  2 ACTIVE CELLS= 1271 NUMBER OF EQUATIONS=    1271

 SOLVING FOR HEAD 

 NO OUTPUT CONTROL FOR STRESS PERIOD    2   TIME STEP   73
 SOLVING FOR ZETA FOR LAYER     1 ZONE     2

     699 UPPER PART EQS.       695 LOWER PART EQS.    BAND WIDTH + 1 =   34
 STRESS PERIOD=  2 TIMESTEP= 73 LAYER=  1 ZONE=  2 ACTIVE CELLS= 1394 NUMBER OF EQUATIONS=    1394
 SOLVING FOR ZETA FOR LAYER     2 ZONE     2

     629 UPPER PART EQS.       642 LOWER PART EQS.    BAND WIDTH + 1 =   35
 STRESS PERIOD=  2 TIMESTEP= 73 LAYER=  2 ZONE=  2 ACTIVE CELLS= 1271 NUMBER OF EQUATIONS=    1271

 SOLVING FOR HEAD 

 NO OUTPUT CONTROL FOR STRESS PERIOD    2   TIME STEP   74
 SOLVING FOR ZETA FOR LAYER     1 ZONE     2

     700 UPPER PART EQS.       699 LOWER PART EQS.    BAND WIDTH + 1 =   30
 STRESS PERIOD=  2 TIMESTEP= 74 LAYER=  1 ZONE=  2 ACTIVE CELLS= 1399 NUMBER OF EQUATIONS=    1399
 SOLVING FOR ZETA FOR LAYER     2 ZONE     2

     629 UPPER PART EQS.       642 LOWER PART EQS.    BAND WIDTH + 1 =   35
 STRESS PERIOD=  2 TIMESTEP= 74 LAYER=  2 ZONE=  2 ACTIVE CELLS= 1271 NUMBER OF EQUATIONS=    1271

 SOLVING FOR HEAD 

 NO OUTPUT CONTROL FOR STRESS PERIOD    2   TIME STEP   75
 SOLVING FOR ZETA FOR LAYER     1 ZONE     2

     689 UPPER PART EQS.       699 LOWER PART EQS.    BAND WIDTH + 1 =   32
 STRESS PERIOD=  2 TIMESTEP= 75 LAYER=  1 ZONE=  2 ACTIVE CELLS= 1388 NUMBER OF EQUATIONS=    1388
 SOLVING FOR ZETA FOR LAYER     2 ZONE     2

     629 UPPER PART EQS.       642 LOWER PART EQS.    BAND WIDTH + 1 =   35
 STRESS PERIOD=  2 TIMESTEP= 75 LAYER=  2 ZONE=  2 ACTIVE CELLS= 1271 NUMBER OF EQUATIONS=    1271

 SOLVING FOR HEAD 

 NO OUTPUT CONTROL FOR STRESS PERIOD    2   TIME STEP   76
 SOLVING FOR ZETA FOR LAYER     1 ZONE     2

     689 UPPER PART EQS.       705 LOWER PART EQS.    BAND WIDTH + 1 =   36
 STRESS PERIOD=  2 TIMESTEP= 76 LAYER=  1 ZONE=  2 ACTIVE CELLS= 1394 NUMBER OF EQUATIONS=    1394
 SOLVING FOR ZETA FOR LAYER     2 ZONE     2

     629 UPPER PART EQS.       642 LOWER PART EQS.    BAND WIDTH + 1 =   35
 STRESS PERIOD=  2 TIMESTEP= 76 LAYER=  2 ZONE=  2 ACTIVE CELLS= 1271 NUMBER OF EQUATIONS=    1271

 SOLVING FOR HEAD 

 NO OUTPUT CONTROL FOR STRESS PERIOD    2   TIME STEP   77
 SOLVING FOR ZETA FOR LAYER     1 ZONE     2

     699 UPPER PART EQS.       709 LOWER PART EQS.    BAND WIDTH + 1 =   30
 STRESS PERIOD=  2 TIMESTEP= 77 LAYER=  1 ZONE=  2 ACTIVE CELLS= 1408 NUMBER OF EQUATIONS=    1408
 SOLVING FOR ZETA FOR LAYER     2 ZONE     2

     629 UPPER PART EQS.       642 LOWER PART EQS.    BAND WIDTH + 1 =   35
 STRESS PERIOD=  2 TIMESTEP= 77 LAYER=  2 ZONE=  2 ACTIVE CELLS= 1271 NUMBER OF EQUATIONS=    1271

 SOLVING FOR HEAD 

 NO OUTPUT CONTROL FOR STRESS PERIOD    2   TIME STEP   78
 SOLVING FOR ZETA FOR LAYER     1 ZONE     2

     697 UPPER PART EQS.       703 LOWER PART EQS.    BAND WIDTH + 1 =   30
 STRESS PERIOD=  2 TIMESTEP= 78 LAYER=  1 ZONE=  2 ACTIVE CELLS= 1400 NUMBER OF EQUATIONS=    1400
 SOLVING FOR ZETA FOR LAYER     2 ZONE     2

     629 UPPER PART EQS.       642 LOWER PART EQS.    BAND WIDTH + 1 =   35
 STRESS PERIOD=  2 TIMESTEP= 78 LAYER=  2 ZONE=  2 ACTIVE CELLS= 1271 NUMBER OF EQUATIONS=    1271

 SOLVING FOR HEAD 

 NO OUTPUT CONTROL FOR STRESS PERIOD    2   TIME STEP   79
 SOLVING FOR ZETA FOR LAYER     1 ZONE     2

     690 UPPER PART EQS.       701 LOWER PART EQS.    BAND WIDTH + 1 =   32
 STRESS PERIOD=  2 TIMESTEP= 79 LAYER=  1 ZONE=  2 ACTIVE CELLS= 1391 NUMBER OF EQUATIONS=    1391
 SOLVING FOR ZETA FOR LAYER     2 ZONE     2

     629 UPPER PART EQS.       642 LOWER PART EQS.    BAND WIDTH + 1 =   35
 STRESS PERIOD=  2 TIMESTEP= 79 LAYER=  2 ZONE=  2 ACTIVE CELLS= 1271 NUMBER OF EQUATIONS=    1271

 SOLVING FOR HEAD 

 NO OUTPUT CONTROL FOR STRESS PERIOD    2   TIME STEP   80
 SOLVING FOR ZETA FOR LAYER     1 ZONE     2

     697 UPPER PART EQS.       703 LOWER PART EQS.    BAND WIDTH + 1 =   27
 STRESS PERIOD=  2 TIMESTEP= 80 LAYER=  1 ZONE=  2 ACTIVE CELLS= 1400 NUMBER OF EQUATIONS=    1400
 SOLVING FOR ZETA FOR LAYER     2 ZONE     2

     629 UPPER PART EQS.       642 LOWER PART EQS.    BAND WIDTH + 1 =   35
 STRESS PERIOD=  2 TIMESTEP= 80 LAYER=  2 ZONE=  2 ACTIVE CELLS= 1271 NUMBER OF EQUATIONS=    1271

 SOLVING FOR HEAD 

 NO OUTPUT CONTROL FOR STRESS PERIOD    2   TIME STEP   81
 SOLVING FOR ZETA FOR LAYER     1 ZONE     2

     699 UPPER PART EQS.       705 LOWER PART EQS.    BAND WIDTH + 1 =   29
 STRESS PERIOD=  2 TIMESTEP= 81 LAYER=  1 ZONE=  2 ACTIVE CELLS= 1404 NUMBER OF EQUATIONS=    1404
 SOLVING FOR ZETA FOR LAYER     2 ZONE     2

     629 UPPER PART EQS.       642 LOWER PART EQS.    BAND WIDTH + 1 =   35
 STRESS PERIOD=  2 TIMESTEP= 81 LAYER=  2 ZONE=  2 ACTIVE CELLS= 1271 NUMBER OF EQUATIONS=    1271

 SOLVING FOR HEAD 

 NO OUTPUT CONTROL FOR STRESS PERIOD    2   TIME STEP   82
 SOLVING FOR ZETA FOR LAYER     1 ZONE     2

     697 UPPER PART EQS.       707 LOWER PART EQS.    BAND WIDTH + 1 =   32
 STRESS PERIOD=  2 TIMESTEP= 82 LAYER=  1 ZONE=  2 ACTIVE CELLS= 1404 NUMBER OF EQUATIONS=    1404
 SOLVING FOR ZETA FOR LAYER     2 ZONE     2

     629 UPPER PART EQS.       642 LOWER PART EQS.    BAND WIDTH + 1 =   35
 STRESS PERIOD=  2 TIMESTEP= 82 LAYER=  2 ZONE=  2 ACTIVE CELLS= 1271 NUMBER OF EQUATIONS=    1271

 SOLVING FOR HEAD 

 NO OUTPUT CONTROL FOR STRESS PERIOD    2   TIME STEP   83
 SOLVING FOR ZETA FOR LAYER     1 ZONE     2

     692 UPPER PART EQS.       709 LOWER PART EQS.    BAND WIDTH + 1 =   38
 STRESS PERIOD=  2 TIMESTEP= 83 LAYER=  1 ZONE=  2 ACTIVE CELLS= 1401 NUMBER OF EQUATIONS=    1401
 SOLVING FOR ZETA FOR LAYER     2 ZONE     2

     629 UPPER PART EQS.       642 LOWER PART EQS.    BAND WIDTH + 1 =   35
 STRESS PERIOD=  2 TIMESTEP= 83 LAYER=  2 ZONE=  2 ACTIVE CELLS= 1271 NUMBER OF EQUATIONS=    1271

 SOLVING FOR HEAD 

 NO OUTPUT CONTROL FOR STRESS PERIOD    2   TIME STEP   84
 SOLVING FOR ZETA FOR LAYER     1 ZONE     2

     699 UPPER PART EQS.       713 LOWER PART EQS.    BAND WIDTH + 1 =   34
 STRESS PERIOD=  2 TIMESTEP= 84 LAYER=  1 ZONE=  2 ACTIVE CELLS= 1412 NUMBER OF EQUATIONS=    1412
 SOLVING FOR ZETA FOR LAYER     2 ZONE     2

     629 UPPER PART EQS.       642 LOWER PART EQS.    BAND WIDTH + 1 =   35
 STRESS PERIOD=  2 TIMESTEP= 84 LAYER=  2 ZONE=  2 ACTIVE CELLS= 1271 NUMBER OF EQUATIONS=    1271

 SOLVING FOR HEAD 

 NO OUTPUT CONTROL FOR STRESS PERIOD    2   TIME STEP   85
 SOLVING FOR ZETA FOR LAYER     1 ZONE     2

     703 UPPER PART EQS.       709 LOWER PART EQS.    BAND WIDTH + 1 =   26
 STRESS PERIOD=  2 TIMESTEP= 85 LAYER=  1 ZONE=  2 ACTIVE CELLS= 1412 NUMBER OF EQUATIONS=    1412
 SOLVING FOR ZETA FOR LAYER     2 ZONE     2

     629 UPPER PART EQS.       642 LOWER PART EQS.    BAND WIDTH + 1 =   35
 STRESS PERIOD=  2 TIMESTEP= 85 LAYER=  2 ZONE=  2 ACTIVE CELLS= 1271 NUMBER OF EQUATIONS=    1271

 SOLVING FOR HEAD 

 NO OUTPUT CONTROL FOR STRESS PERIOD    2   TIME STEP   86
 SOLVING FOR ZETA FOR LAYER     1 ZONE     2

     697 UPPER PART EQS.       701 LOWER PART EQS.    BAND WIDTH + 1 =   28
 STRESS PERIOD=  2 TIMESTEP= 86 LAYER=  1 ZONE=  2 ACTIVE CELLS= 1398 NUMBER OF EQUATIONS=    1398
 SOLVING FOR ZETA FOR LAYER     2 ZONE     2

     629 UPPER PART EQS.       642 LOWER PART EQS.    BAND WIDTH + 1 =   35
 STRESS PERIOD=  2 TIMESTEP= 86 LAYER=  2 ZONE=  2 ACTIVE CELLS= 1271 NUMBER OF EQUATIONS=    1271

 SOLVING FOR HEAD 

 NO OUTPUT CONTROL FOR STRESS PERIOD    2   TIME STEP   87
 SOLVING FOR ZETA FOR LAYER     1 ZONE     2

     692 UPPER PART EQS.       711 LOWER PART EQS.    BAND WIDTH + 1 =   38
 STRESS PERIOD=  2 TIMESTEP= 87 LAYER=  1 ZONE=  2 ACTIVE CELLS= 1403 NUMBER OF EQUATIONS=    1403
 SOLVING FOR ZETA FOR LAYER     2 ZONE     2

     629 UPPER PART EQS.       642 LOWER PART EQS.    BAND WIDTH + 1 =   35
 STRESS PERIOD=  2 TIMESTEP= 87 LAYER=  2 ZONE=  2 ACTIVE CELLS= 1271 NUMBER OF EQUATIONS=    1271

 SOLVING FOR HEAD 

 NO OUTPUT CONTROL FOR STRESS PERIOD    2   TIME STEP   88
 SOLVING FOR ZETA FOR LAYER     1 ZONE     2

     699 UPPER PART EQS.       717 LOWER PART EQS.    BAND WIDTH + 1 =   37
 STRESS PERIOD=  2 TIMESTEP= 88 LAYER=  1 ZONE=  2 ACTIVE CELLS= 1416 NUMBER OF EQUATIONS=    1416
 SOLVING FOR ZETA FOR LAYER     2 ZONE     2

     629 UPPER PART EQS.       642 LOWER PART EQS.    BAND WIDTH + 1 =   35
 STRESS PERIOD=  2 TIMESTEP= 88 LAYER=  2 ZONE=  2 ACTIVE CELLS= 1271 NUMBER OF EQUATIONS=    1271

 SOLVING FOR HEAD 

 NO OUTPUT CONTROL FOR STRESS PERIOD    2   TIME STEP   89
 SOLVING FOR ZETA FOR LAYER     1 ZONE     2

     701 UPPER PART EQS.       713 LOWER PART EQS.    BAND WIDTH + 1 =   31
 STRESS PERIOD=  2 TIMESTEP= 89 LAYER=  1 ZONE=  2 ACTIVE CELLS= 1414 NUMBER OF EQUATIONS=    1414
 SOLVING FOR ZETA FOR LAYER     2 ZONE     2

     629 UPPER PART EQS.       642 LOWER PART EQS.    BAND WIDTH + 1 =   35
 STRESS PERIOD=  2 TIMESTEP= 89 LAYER=  2 ZONE=  2 ACTIVE CELLS= 1271 NUMBER OF EQUATIONS=    1271

 SOLVING FOR HEAD 

 NO OUTPUT CONTROL FOR STRESS PERIOD    2   TIME STEP   90
 SOLVING FOR ZETA FOR LAYER     1 ZONE     2

     703 UPPER PART EQS.       703 LOWER PART EQS.    BAND WIDTH + 1 =   32
 STRESS PERIOD=  2 TIMESTEP= 90 LAYER=  1 ZONE=  2 ACTIVE CELLS= 1406 NUMBER OF EQUATIONS=    1406
 SOLVING FOR ZETA FOR LAYER     2 ZONE     2

     629 UPPER PART EQS.       642 LOWER PART EQS.    BAND WIDTH + 1 =   35
 STRESS PERIOD=  2 TIMESTEP= 90 LAYER=  2 ZONE=  2 ACTIVE CELLS= 1271 NUMBER OF EQUATIONS=    1271

 SOLVING FOR HEAD 

 NO OUTPUT CONTROL FOR STRESS PERIOD    2   TIME STEP   91
 SOLVING FOR ZETA FOR LAYER     1 ZONE     2

     690 UPPER PART EQS.       711 LOWER PART EQS.    BAND WIDTH + 1 =   40
 STRESS PERIOD=  2 TIMESTEP= 91 LAYER=  1 ZONE=  2 ACTIVE CELLS= 1401 NUMBER OF EQUATIONS=    1401
 SOLVING FOR ZETA FOR LAYER     2 ZONE     2

     629 UPPER PART EQS.       642 LOWER PART EQS.    BAND WIDTH + 1 =   35
 STRESS PERIOD=  2 TIMESTEP= 91 LAYER=  2 ZONE=  2 ACTIVE CELLS= 1271 NUMBER OF EQUATIONS=    1271

 SOLVING FOR HEAD 

 NO OUTPUT CONTROL FOR STRESS PERIOD    2   TIME STEP   92
 SOLVING FOR ZETA FOR LAYER     1 ZONE     2

     697 UPPER PART EQS.       719 LOWER PART EQS.    BAND WIDTH + 1 =   41
 STRESS PERIOD=  2 TIMESTEP= 92 LAYER=  1 ZONE=  2 ACTIVE CELLS= 1416 NUMBER OF EQUATIONS=    1416
 SOLVING FOR ZETA FOR LAYER     2 ZONE     2

     629 UPPER PART EQS.       642 LOWER PART EQS.    BAND WIDTH + 1 =   35
 STRESS PERIOD=  2 TIMESTEP= 92 LAYER=  2 ZONE=  2 ACTIVE CELLS= 1271 NUMBER OF EQUATIONS=    1271

 SOLVING FOR HEAD 

 NO OUTPUT CONTROL FOR STRESS PERIOD    2   TIME STEP   93
 SOLVING FOR ZETA FOR LAYER     1 ZONE     2

     705 UPPER PART EQS.       713 LOWER PART EQS.    BAND WIDTH + 1 =   27
 STRESS PERIOD=  2 TIMESTEP= 93 LAYER=  1 ZONE=  2 ACTIVE CELLS= 1418 NUMBER OF EQUATIONS=    1418
 SOLVING FOR ZETA FOR LAYER     2 ZONE     2

     629 UPPER PART EQS.       642 LOWER PART EQS.    BAND WIDTH + 1 =   35
 STRESS PERIOD=  2 TIMESTEP= 93 LAYER=  2 ZONE=  2 ACTIVE CELLS= 1271 NUMBER OF EQUATIONS=    1271

 SOLVING FOR HEAD 

 NO OUTPUT CONTROL FOR STRESS PERIOD    2   TIME STEP   94
 SOLVING FOR ZETA FOR LAYER     1 ZONE     2

     699 UPPER PART EQS.       711 LOWER PART EQS.    BAND WIDTH + 1 =   32
 STRESS PERIOD=  2 TIMESTEP= 94 LAYER=  1 ZONE=  2 ACTIVE CELLS= 1410 NUMBER OF EQUATIONS=    1410
 SOLVING FOR ZETA FOR LAYER     2 ZONE     2

     629 UPPER PART EQS.       642 LOWER PART EQS.    BAND WIDTH + 1 =   35
 STRESS PERIOD=  2 TIMESTEP= 94 LAYER=  2 ZONE=  2 ACTIVE CELLS= 1271 NUMBER OF EQUATIONS=    1271

 SOLVING FOR HEAD 

 NO OUTPUT CONTROL FOR STRESS PERIOD    2   TIME STEP   95
 SOLVING FOR ZETA FOR LAYER     1 ZONE     2

     692 UPPER PART EQS.       713 LOWER PART EQS.    BAND WIDTH + 1 =   40
 STRESS PERIOD=  2 TIMESTEP= 95 LAYER=  1 ZONE=  2 ACTIVE CELLS= 1405 NUMBER OF EQUATIONS=    1405
 SOLVING FOR ZETA FOR LAYER     2 ZONE     2

     629 UPPER PART EQS.       642 LOWER PART EQS.    BAND WIDTH + 1 =   35
 STRESS PERIOD=  2 TIMESTEP= 95 LAYER=  2 ZONE=  2 ACTIVE CELLS= 1271 NUMBER OF EQUATIONS=    1271

 SOLVING FOR HEAD 

 NO OUTPUT CONTROL FOR STRESS PERIOD    2   TIME STEP   96
 SOLVING FOR ZETA FOR LAYER     1 ZONE     2

     697 UPPER PART EQS.       715 LOWER PART EQS.    BAND WIDTH + 1 =   37
 STRESS PERIOD=  2 TIMESTEP= 96 LAYER=  1 ZONE=  2 ACTIVE CELLS= 1412 NUMBER OF EQUATIONS=    1412
 SOLVING FOR ZETA FOR LAYER     2 ZONE     2

     629 UPPER PART EQS.       642 LOWER PART EQS.    BAND WIDTH + 1 =   35
 STRESS PERIOD=  2 TIMESTEP= 96 LAYER=  2 ZONE=  2 ACTIVE CELLS= 1271 NUMBER OF EQUATIONS=    1271

 SOLVING FOR HEAD 

 NO OUTPUT CONTROL FOR STRESS PERIOD    2   TIME STEP   97
 SOLVING FOR ZETA FOR LAYER     1 ZONE     2

     703 UPPER PART EQS.       721 LOWER PART EQS.    BAND WIDTH + 1 =   38
 STRESS PERIOD=  2 TIMESTEP= 97 LAYER=  1 ZONE=  2 ACTIVE CELLS= 1424 NUMBER OF EQUATIONS=    1424
 SOLVING FOR ZETA FOR LAYER     2 ZONE     2

     629 UPPER PART EQS.       642 LOWER PART EQS.    BAND WIDTH + 1 =   35
 STRESS PERIOD=  2 TIMESTEP= 97 LAYER=  2 ZONE=  2 ACTIVE CELLS= 1271 NUMBER OF EQUATIONS=    1271

 SOLVING FOR HEAD 

 NO OUTPUT CONTROL FOR STRESS PERIOD    2   TIME STEP   98
 SOLVING FOR ZETA FOR LAYER     1 ZONE     2

     701 UPPER PART EQS.       709 LOWER PART EQS.    BAND WIDTH + 1 =   29
 STRESS PERIOD=  2 TIMESTEP= 98 LAYER=  1 ZONE=  2 ACTIVE CELLS= 1410 NUMBER OF EQUATIONS=    1410
 SOLVING FOR ZETA FOR LAYER     2 ZONE     2

     629 UPPER PART EQS.       642 LOWER PART EQS.    BAND WIDTH + 1 =   35
 STRESS PERIOD=  2 TIMESTEP= 98 LAYER=  2 ZONE=  2 ACTIVE CELLS= 1271 NUMBER OF EQUATIONS=    1271

 SOLVING FOR HEAD 

 NO OUTPUT CONTROL FOR STRESS PERIOD    2   TIME STEP   99
 SOLVING FOR ZETA FOR LAYER     1 ZONE     2

     698 UPPER PART EQS.       715 LOWER PART EQS.    BAND WIDTH + 1 =   38
 STRESS PERIOD=  2 TIMESTEP= 99 LAYER=  1 ZONE=  2 ACTIVE CELLS= 1413 NUMBER OF EQUATIONS=    1413
 SOLVING FOR ZETA FOR LAYER     2 ZONE     2

     629 UPPER PART EQS.       642 LOWER PART EQS.    BAND WIDTH + 1 =   35
 STRESS PERIOD=  2 TIMESTEP= 99 LAYER=  2 ZONE=  2 ACTIVE CELLS= 1271 NUMBER OF EQUATIONS=    1271

 SOLVING FOR HEAD 

 NO OUTPUT CONTROL FOR STRESS PERIOD    2   TIME STEP  100
 SOLVING FOR ZETA FOR LAYER     1 ZONE     2

     707 UPPER PART EQS.       715 LOWER PART EQS.    BAND WIDTH + 1 =   29
 STRESS PERIOD=  2 TIMESTEP=100 LAYER=  1 ZONE=  2 ACTIVE CELLS= 1422 NUMBER OF EQUATIONS=    1422
 SOLVING FOR ZETA FOR LAYER     2 ZONE     2

     629 UPPER PART EQS.       642 LOWER PART EQS.    BAND WIDTH + 1 =   35
 STRESS PERIOD=  2 TIMESTEP=100 LAYER=  2 ZONE=  2 ACTIVE CELLS= 1271 NUMBER OF EQUATIONS=    1271

 SOLVING FOR HEAD 

 NO OUTPUT CONTROL FOR STRESS PERIOD    2   TIME STEP  101
 SOLVING FOR ZETA FOR LAYER     1 ZONE     2

     707 UPPER PART EQS.       713 LOWER PART EQS.    BAND WIDTH + 1 =   27
 STRESS PERIOD=  2 TIMESTEP=101 LAYER=  1 ZONE=  2 ACTIVE CELLS= 1420 NUMBER OF EQUATIONS=    1420
 SOLVING FOR ZETA FOR LAYER     2 ZONE     2

     629 UPPER PART EQS.       642 LOWER PART EQS.    BAND WIDTH + 1 =   35
 STRESS PERIOD=  2 TIMESTEP=101 LAYER=  2 ZONE=  2 ACTIVE CELLS= 1271 NUMBER OF EQUATIONS=    1271

 SOLVING FOR HEAD 

 NO OUTPUT CONTROL FOR STRESS PERIOD    2   TIME STEP  102
 SOLVING FOR ZETA FOR LAYER     1 ZONE     2

     703 UPPER PART EQS.       713 LOWER PART EQS.    BAND WIDTH + 1 =   33
 STRESS PERIOD=  2 TIMESTEP=102 LAYER=  1 ZONE=  2 ACTIVE CELLS= 1416 NUMBER OF EQUATIONS=    1416
 SOLVING FOR ZETA FOR LAYER     2 ZONE     2

     629 UPPER PART EQS.       642 LOWER PART EQS.    BAND WIDTH + 1 =   35
 STRESS PERIOD=  2 TIMESTEP=102 LAYER=  2 ZONE=  2 ACTIVE CELLS= 1271 NUMBER OF EQUATIONS=    1271

 SOLVING FOR HEAD 

 NO OUTPUT CONTROL FOR STRESS PERIOD    2   TIME STEP  103
 SOLVING FOR ZETA FOR LAYER     1 ZONE     2

     704 UPPER PART EQS.       719 LOWER PART EQS.    BAND WIDTH + 1 =   37
 STRESS PERIOD=  2 TIMESTEP=103 LAYER=  1 ZONE=  2 ACTIVE CELLS= 1423 NUMBER OF EQUATIONS=    1423
 SOLVING FOR ZETA FOR LAYER     2 ZONE     2

     631 UPPER PART EQS.       642 LOWER PART EQS.    BAND WIDTH + 1 =   35
 STRESS PERIOD=  2 TIMESTEP=103 LAYER=  2 ZONE=  2 ACTIVE CELLS= 1273 NUMBER OF EQUATIONS=    1273

 SOLVING FOR HEAD 

 NO OUTPUT CONTROL FOR STRESS PERIOD    2   TIME STEP  104
 SOLVING FOR ZETA FOR LAYER     1 ZONE     2

     703 UPPER PART EQS.       721 LOWER PART EQS.    BAND WIDTH + 1 =   40
 STRESS PERIOD=  2 TIMESTEP=104 LAYER=  1 ZONE=  2 ACTIVE CELLS= 1424 NUMBER OF EQUATIONS=    1424
 SOLVING FOR ZETA FOR LAYER     2 ZONE     2

     631 UPPER PART EQS.       642 LOWER PART EQS.    BAND WIDTH + 1 =   35
 STRESS PERIOD=  2 TIMESTEP=104 LAYER=  2 ZONE=  2 ACTIVE CELLS= 1273 NUMBER OF EQUATIONS=    1273

 SOLVING FOR HEAD 

 NO OUTPUT CONTROL FOR STRESS PERIOD    2   TIME STEP  105
 SOLVING FOR ZETA FOR LAYER     1 ZONE     2

     713 UPPER PART EQS.       713 LOWER PART EQS.    BAND WIDTH + 1 =   29
 STRESS PERIOD=  2 TIMESTEP=105 LAYER=  1 ZONE=  2 ACTIVE CELLS= 1426 NUMBER OF EQUATIONS=    1426
 SOLVING FOR ZETA FOR LAYER     2 ZONE     2

     631 UPPER PART EQS.       642 LOWER PART EQS.    BAND WIDTH + 1 =   35
 STRESS PERIOD=  2 TIMESTEP=105 LAYER=  2 ZONE=  2 ACTIVE CELLS= 1273 NUMBER OF EQUATIONS=    1273

 SOLVING FOR HEAD 

 NO OUTPUT CONTROL FOR STRESS PERIOD    2   TIME STEP  106
 SOLVING FOR ZETA FOR LAYER     1 ZONE     2

     703 UPPER PART EQS.       709 LOWER PART EQS.    BAND WIDTH + 1 =   29
 STRESS PERIOD=  2 TIMESTEP=106 LAYER=  1 ZONE=  2 ACTIVE CELLS= 1412 NUMBER OF EQUATIONS=    1412
 SOLVING FOR ZETA FOR LAYER     2 ZONE     2

     631 UPPER PART EQS.       642 LOWER PART EQS.    BAND WIDTH + 1 =   35
 STRESS PERIOD=  2 TIMESTEP=106 LAYER=  2 ZONE=  2 ACTIVE CELLS= 1273 NUMBER OF EQUATIONS=    1273

 SOLVING FOR HEAD 

 NO OUTPUT CONTROL FOR STRESS PERIOD    2   TIME STEP  107
 SOLVING FOR ZETA FOR LAYER     1 ZONE     2

     700 UPPER PART EQS.       723 LOWER PART EQS.    BAND WIDTH + 1 =   45
 STRESS PERIOD=  2 TIMESTEP=107 LAYER=  1 ZONE=  2 ACTIVE CELLS= 1423 NUMBER OF EQUATIONS=    1423
 SOLVING FOR ZETA FOR LAYER     2 ZONE     2

     631 UPPER PART EQS.       642 LOWER PART EQS.    BAND WIDTH + 1 =   35
 STRESS PERIOD=  2 TIMESTEP=107 LAYER=  2 ZONE=  2 ACTIVE CELLS= 1273 NUMBER OF EQUATIONS=    1273

 SOLVING FOR HEAD 

 NO OUTPUT CONTROL FOR STRESS PERIOD    2   TIME STEP  108
 SOLVING FOR ZETA FOR LAYER     1 ZONE     2

     709 UPPER PART EQS.       713 LOWER PART EQS.    BAND WIDTH + 1 =   27
 STRESS PERIOD=  2 TIMESTEP=108 LAYER=  1 ZONE=  2 ACTIVE CELLS= 1422 NUMBER OF EQUATIONS=    1422
 SOLVING FOR ZETA FOR LAYER     2 ZONE     2

     631 UPPER PART EQS.       642 LOWER PART EQS.    BAND WIDTH + 1 =   35
 STRESS PERIOD=  2 TIMESTEP=108 LAYER=  2 ZONE=  2 ACTIVE CELLS= 1273 NUMBER OF EQUATIONS=    1273

 SOLVING FOR HEAD 

 NO OUTPUT CONTROL FOR STRESS PERIOD    2   TIME STEP  109
 SOLVING FOR ZETA FOR LAYER     1 ZONE     2

     709 UPPER PART EQS.       723 LOWER PART EQS.    BAND WIDTH + 1 =   36
 STRESS PERIOD=  2 TIMESTEP=109 LAYER=  1 ZONE=  2 ACTIVE CELLS= 1432 NUMBER OF EQUATIONS=    1432
 SOLVING FOR ZETA FOR LAYER     2 ZONE     2

     631 UPPER PART EQS.       642 LOWER PART EQS.    BAND WIDTH + 1 =   35
 STRESS PERIOD=  2 TIMESTEP=109 LAYER=  2 ZONE=  2 ACTIVE CELLS= 1273 NUMBER OF EQUATIONS=    1273

 SOLVING FOR HEAD 

 NO OUTPUT CONTROL FOR STRESS PERIOD    2   TIME STEP  110
 SOLVING FOR ZETA FOR LAYER     1 ZONE     2

     707 UPPER PART EQS.       709 LOWER PART EQS.    BAND WIDTH + 1 =   30
 STRESS PERIOD=  2 TIMESTEP=110 LAYER=  1 ZONE=  2 ACTIVE CELLS= 1416 NUMBER OF EQUATIONS=    1416
 SOLVING FOR ZETA FOR LAYER     2 ZONE     2

     631 UPPER PART EQS.       642 LOWER PART EQS.    BAND WIDTH + 1 =   35
 STRESS PERIOD=  2 TIMESTEP=110 LAYER=  2 ZONE=  2 ACTIVE CELLS= 1273 NUMBER OF EQUATIONS=    1273

 SOLVING FOR HEAD 

 NO OUTPUT CONTROL FOR STRESS PERIOD    2   TIME STEP  111
 SOLVING FOR ZETA FOR LAYER     1 ZONE     2

     700 UPPER PART EQS.       713 LOWER PART EQS.    BAND WIDTH + 1 =   35
 STRESS PERIOD=  2 TIMESTEP=111 LAYER=  1 ZONE=  2 ACTIVE CELLS= 1413 NUMBER OF EQUATIONS=    1413
 SOLVING FOR ZETA FOR LAYER     2 ZONE     2

     631 UPPER PART EQS.       642 LOWER PART EQS.    BAND WIDTH + 1 =   35
 STRESS PERIOD=  2 TIMESTEP=111 LAYER=  2 ZONE=  2 ACTIVE CELLS= 1273 NUMBER OF EQUATIONS=    1273

 SOLVING FOR HEAD 

 NO OUTPUT CONTROL FOR STRESS PERIOD    2   TIME STEP  112
 SOLVING FOR ZETA FOR LAYER     1 ZONE     2

     705 UPPER PART EQS.       723 LOWER PART EQS.    BAND WIDTH + 1 =   40
 STRESS PERIOD=  2 TIMESTEP=112 LAYER=  1 ZONE=  2 ACTIVE CELLS= 1428 NUMBER OF EQUATIONS=    1428
 SOLVING FOR ZETA FOR LAYER     2 ZONE     2

     631 UPPER PART EQS.       642 LOWER PART EQS.    BAND WIDTH + 1 =   35
 STRESS PERIOD=  2 TIMESTEP=112 LAYER=  2 ZONE=  2 ACTIVE CELLS= 1273 NUMBER OF EQUATIONS=    1273

 SOLVING FOR HEAD 

 NO OUTPUT CONTROL FOR STRESS PERIOD    2   TIME STEP  113
 SOLVING FOR ZETA FOR LAYER     1 ZONE     2

     713 UPPER PART EQS.       717 LOWER PART EQS.    BAND WIDTH + 1 =   27
 STRESS PERIOD=  2 TIMESTEP=113 LAYER=  1 ZONE=  2 ACTIVE CELLS= 1430 NUMBER OF EQUATIONS=    1430
 SOLVING FOR ZETA FOR LAYER     2 ZONE     2

     631 UPPER PART EQS.       642 LOWER PART EQS.    BAND WIDTH + 1 =   35
 STRESS PERIOD=  2 TIMESTEP=113 LAYER=  2 ZONE=  2 ACTIVE CELLS= 1273 NUMBER OF EQUATIONS=    1273

 SOLVING FOR HEAD 

 NO OUTPUT CONTROL FOR STRESS PERIOD    2   TIME STEP  114
 SOLVING FOR ZETA FOR LAYER     1 ZONE     2

     703 UPPER PART EQS.       711 LOWER PART EQS.    BAND WIDTH + 1 =   32
 STRESS PERIOD=  2 TIMESTEP=114 LAYER=  1 ZONE=  2 ACTIVE CELLS= 1414 NUMBER OF EQUATIONS=    1414
 SOLVING FOR ZETA FOR LAYER     2 ZONE     2

     631 UPPER PART EQS.       642 LOWER PART EQS.    BAND WIDTH + 1 =   35
 STRESS PERIOD=  2 TIMESTEP=114 LAYER=  2 ZONE=  2 ACTIVE CELLS= 1273 NUMBER OF EQUATIONS=    1273

 SOLVING FOR HEAD 

 NO OUTPUT CONTROL FOR STRESS PERIOD    2   TIME STEP  115
 SOLVING FOR ZETA FOR LAYER     1 ZONE     2

     706 UPPER PART EQS.       717 LOWER PART EQS.    BAND WIDTH + 1 =   32
 STRESS PERIOD=  2 TIMESTEP=115 LAYER=  1 ZONE=  2 ACTIVE CELLS= 1423 NUMBER OF EQUATIONS=    1423
 SOLVING FOR ZETA FOR LAYER     2 ZONE     2

     631 UPPER PART EQS.       642 LOWER PART EQS.    BAND WIDTH + 1 =   35
 STRESS PERIOD=  2 TIMESTEP=115 LAYER=  2 ZONE=  2 ACTIVE CELLS= 1273 NUMBER OF EQUATIONS=    1273

 SOLVING FOR HEAD 

 NO OUTPUT CONTROL FOR STRESS PERIOD    2   TIME STEP  116
 SOLVING FOR ZETA FOR LAYER     1 ZONE     2

     707 UPPER PART EQS.       721 LOWER PART EQS.    BAND WIDTH + 1 =   35
 STRESS PERIOD=  2 TIMESTEP=116 LAYER=  1 ZONE=  2 ACTIVE CELLS= 1428 NUMBER OF EQUATIONS=    1428
 SOLVING FOR ZETA FOR LAYER     2 ZONE     2

     633 UPPER PART EQS.       642 LOWER PART EQS.    BAND WIDTH + 1 =   35
 STRESS PERIOD=  2 TIMESTEP=116 LAYER=  2 ZONE=  2 ACTIVE CELLS= 1275 NUMBER OF EQUATIONS=    1275

 SOLVING FOR HEAD 

 NO OUTPUT CONTROL FOR STRESS PERIOD    2   TIME STEP  117
 SOLVING FOR ZETA FOR LAYER     1 ZONE     2

     711 UPPER PART EQS.       721 LOWER PART EQS.    BAND WIDTH + 1 =   31
 STRESS PERIOD=  2 TIMESTEP=117 LAYER=  1 ZONE=  2 ACTIVE CELLS= 1432 NUMBER OF EQUATIONS=    1432
 SOLVING FOR ZETA FOR LAYER     2 ZONE     2

     633 UPPER PART EQS.       642 LOWER PART EQS.    BAND WIDTH + 1 =   35
 STRESS PERIOD=  2 TIMESTEP=117 LAYER=  2 ZONE=  2 ACTIVE CELLS= 1275 NUMBER OF EQUATIONS=    1275

 SOLVING FOR HEAD 

 NO OUTPUT CONTROL FOR STRESS PERIOD    2   TIME STEP  118
 SOLVING FOR ZETA FOR LAYER     1 ZONE     2

     707 UPPER PART EQS.       711 LOWER PART EQS.    BAND WIDTH + 1 =   30
 STRESS PERIOD=  2 TIMESTEP=118 LAYER=  1 ZONE=  2 ACTIVE CELLS= 1418 NUMBER OF EQUATIONS=    1418
 SOLVING FOR ZETA FOR LAYER     2 ZONE     2

     633 UPPER PART EQS.       642 LOWER PART EQS.    BAND WIDTH + 1 =   35
 STRESS PERIOD=  2 TIMESTEP=118 LAYER=  2 ZONE=  2 ACTIVE CELLS= 1275 NUMBER OF EQUATIONS=    1275

 SOLVING FOR HEAD 

 NO OUTPUT CONTROL FOR STRESS PERIOD    2   TIME STEP  119
 SOLVING FOR ZETA FOR LAYER     1 ZONE     2

     700 UPPER PART EQS.       723 LOWER PART EQS.    BAND WIDTH + 1 =   44
 STRESS PERIOD=  2 TIMESTEP=119 LAYER=  1 ZONE=  2 ACTIVE CELLS= 1423 NUMBER OF EQUATIONS=    1423
 SOLVING FOR ZETA FOR LAYER     2 ZONE     2

     633 UPPER PART EQS.       642 LOWER PART EQS.    BAND WIDTH + 1 =   35
 STRESS PERIOD=  2 TIMESTEP=119 LAYER=  2 ZONE=  2 ACTIVE CELLS= 1275 NUMBER OF EQUATIONS=    1275

 SOLVING FOR HEAD 

 OUTPUT CONTROL FOR STRESS PERIOD    2   TIME STEP  120
    PRINT BUDGET
    SAVE HEAD FOR ALL LAYERS
 SOLVING FOR ZETA FOR LAYER     1 ZONE     2

     711 UPPER PART EQS.       715 LOWER PART EQS.    BAND WIDTH + 1 =   26
 STRESS PERIOD=  2 TIMESTEP=120 LAYER=  1 ZONE=  2 ACTIVE CELLS= 1426 NUMBER OF EQUATIONS=    1426
 SOLVING FOR ZETA FOR LAYER     2 ZONE     2

     633 UPPER PART EQS.       642 LOWER PART EQS.    BAND WIDTH + 1 =   35
 STRESS PERIOD=  2 TIMESTEP=120 LAYER=  2 ZONE=  2 ACTIVE CELLS= 1275 NUMBER OF EQUATIONS=    1275
 UBUDSV SAVING "      ZETASRF  1" ON UNIT 55 AT TIME STEP120, STRESS PERIOD    2


                      VOLUMETRIC SWI ZONE BUDGET FOR ENTIRE MODEL
                     AT END OF TIME STEP  120 IN STRESS PERIOD   2
                                      ZONE     1
  -----------------------------------------------------------------------------------

        CUMULATIVE VOLUMES      L**3       RATES FOR THIS TIME STEP      L**3/T
        ------------------                 ------------------------

              IN:                                      IN:
              ---                                      ---
             BOUNDARIES =   130161424.0000            BOUNDARIES =        1680.0000
          CONSTANT HEAD =           0.0000         CONSTANT HEAD =           0.0000
            ZONE CHANGE =     1033280.8750           ZONE CHANGE =         117.4696
       ZONE CHG TIP/TOE =      419103.5938      ZONE CHG TIP/TOE =           2.8984
            ZONE MIXING =           0.0000           ZONE MIXING =           0.0000

               TOTAL IN =   131613808.0000              TOTAL IN =        1800.3680

             OUT:                                     OUT:
             ----                                     ----
             BOUNDARIES =   113011496.0000            BOUNDARIES =        1792.4594
          CONSTANT HEAD =           0.0000         CONSTANT HEAD =           0.0000
            ZONE CHANGE =    18911264.0000           ZONE CHANGE =           4.9794
       ZONE CHG TIP/TOE =      429935.3750      ZONE CHG TIP/TOE =           3.9252
            ZONE MIXING =           0.0000           ZONE MIXING =           0.0000

              TOTAL OUT =   132352696.0000             TOTAL OUT =        1801.3639

               IN - OUT =     -738888.0000              IN - OUT =          -0.9958

    PERCENT DISCREPANCY =          -0.56     PERCENT DISCREPANCY =          -0.06



                      VOLUMETRIC SWI ZONE BUDGET FOR ENTIRE MODEL
                     AT END OF TIME STEP  120 IN STRESS PERIOD   2
                                      ZONE     2
  -----------------------------------------------------------------------------------

        CUMULATIVE VOLUMES      L**3       RATES FOR THIS TIME STEP      L**3/T
        ------------------                 ------------------------

              IN:                                      IN:
              ---                                      ---
             BOUNDARIES =      506299.8125            BOUNDARIES =         112.4594
          CONSTANT HEAD =           0.0000         CONSTANT HEAD =           0.0000
            ZONE CHANGE =    18869984.0000           ZONE CHANGE =           4.8975
       ZONE CHG TIP/TOE =     1170715.0000      ZONE CHG TIP/TOE =           3.9252
            ZONE MIXING =           0.0000           ZONE MIXING =           0.0000

               TOTAL IN =    20547000.0000              TOTAL IN =         121.2821

             OUT:                                     OUT:
             ----                                     ----
             BOUNDARIES =    17655286.0000            BOUNDARIES =           0.0000
          CONSTANT HEAD =           0.0000         CONSTANT HEAD =           0.0000
            ZONE CHANGE =     1774060.0000           ZONE CHANGE =         117.4696
       ZONE CHG TIP/TOE =      377853.1250      ZONE CHG TIP/TOE =           2.8166
            ZONE MIXING =           0.0000           ZONE MIXING =           0.0000

              TOTAL OUT =    19807200.0000             TOTAL OUT =         120.2862

               IN - OUT =      739800.0000              IN - OUT =           0.9959

    PERCENT DISCREPANCY =           3.67     PERCENT DISCREPANCY =           0.82


 HEAD WILL BE SAVED ON UNIT   51 AT END OF TIME STEP  120, STRESS PERIOD    2
1
  VOLUMETRIC BUDGET FOR ENTIRE MODEL AT END OF TIME STEP  120, STRESS PERIOD   2
  ------------------------------------------------------------------------------

     CUMULATIVE VOLUMES      L**3       RATES FOR THIS TIME STEP      L**3/T
     ------------------                 ------------------------

           IN:                                      IN:
           ---                                      ---
             STORAGE =           0.0000               STORAGE =           0.0000
       CONSTANT HEAD =           0.0000         CONSTANT HEAD =           0.0000
               WELLS =           0.0000                 WELLS =           0.0000
     HEAD DEP BOUNDS =      506299.8125       HEAD DEP BOUNDS =         112.4594
            RECHARGE =   130166224.0000              RECHARGE =        1681.0000
          SWIADDTOCH =           0.0000            SWIADDTOCH =           0.0000

            TOTAL IN =   130672520.0000              TOTAL IN =        1793.4594

          OUT:                                     OUT:
          ----                                     ----
             STORAGE =           0.0000               STORAGE =           0.0000
       CONSTANT HEAD =           0.0000         CONSTANT HEAD =           0.0000
               WELLS =     1095750.0000                 WELLS =         250.0000
     HEAD DEP BOUNDS =   129576600.0000       HEAD DEP BOUNDS =        1543.4594
            RECHARGE =           0.0000              RECHARGE =           0.0000
          SWIADDTOCH =           0.0000            SWIADDTOCH =           0.0000

           TOTAL OUT =   130672352.0000             TOTAL OUT =        1793.4594

            IN - OUT =         168.0000              IN - OUT =           0.0000

 PERCENT DISCREPANCY =           0.00     PERCENT DISCREPANCY =           0.00






         TIME SUMMARY AT END OF TIME STEP  120 IN STRESS PERIOD    2
                    SECONDS     MINUTES      HOURS       DAYS        YEARS
                    -----------------------------------------------------------
   TIME STEP LENGTH 3.15576E+06  52596.      876.60      36.525     0.10000    
 STRESS PERIOD TIME 3.78691E+08 6.31151E+06 1.05192E+05  4383.0      12.000    
         TOTAL TIME 6.69021E+09 1.11503E+08 1.85839E+06  77433.      212.00    
1
1
                            STRESS PERIOD NO.    3, LENGTH =   6574.500    
                            -----------------------------------------------

                              NUMBER OF TIME STEPS =   180

                               MULTIPLIER FOR DELT =     1.000

                            INITIAL TIME STEP SIZE =   36.52500    

 REUSING NON-PARAMETER WELLS FROM LAST STRESS PERIOD

      2 WELLS

 REUSING NON-PARAMETER GHB CELLS FROM LAST STRESS PERIOD

   2040 GHB CELLS

 REUSING RECH FROM LAST STRESS PERIOD

 SOLVING FOR HEAD 

 NO OUTPUT CONTROL FOR STRESS PERIOD    3   TIME STEP    1
 SOLVING FOR ZETA FOR LAYER     1 ZONE     2

     711 UPPER PART EQS.       723 LOWER PART EQS.    BAND WIDTH + 1 =   33
 STRESS PERIOD=  3 TIMESTEP=  1 LAYER=  1 ZONE=  2 ACTIVE CELLS= 1434 NUMBER OF EQUATIONS=    1434
 SOLVING FOR ZETA FOR LAYER     2 ZONE     2

     633 UPPER PART EQS.       642 LOWER PART EQS.    BAND WIDTH + 1 =   35
 STRESS PERIOD=  3 TIMESTEP=  1 LAYER=  2 ZONE=  2 ACTIVE CELLS= 1275 NUMBER OF EQUATIONS=    1275

 SOLVING FOR HEAD 

 NO OUTPUT CONTROL FOR STRESS PERIOD    3   TIME STEP    2
 SOLVING FOR ZETA FOR LAYER     1 ZONE     2

     707 UPPER PART EQS.       713 LOWER PART EQS.    BAND WIDTH + 1 =   32
 STRESS PERIOD=  3 TIMESTEP=  2 LAYER=  1 ZONE=  2 ACTIVE CELLS= 1420 NUMBER OF EQUATIONS=    1420
 SOLVING FOR ZETA FOR LAYER     2 ZONE     2

     633 UPPER PART EQS.       642 LOWER PART EQS.    BAND WIDTH + 1 =   35
 STRESS PERIOD=  3 TIMESTEP=  2 LAYER=  2 ZONE=  2 ACTIVE CELLS= 1275 NUMBER OF EQUATIONS=    1275

 SOLVING FOR HEAD 

 NO OUTPUT CONTROL FOR STRESS PERIOD    3   TIME STEP    3
 SOLVING FOR ZETA FOR LAYER     1 ZONE     2

     704 UPPER PART EQS.       717 LOWER PART EQS.    BAND WIDTH + 1 =   35
 STRESS PERIOD=  3 TIMESTEP=  3 LAYER=  1 ZONE=  2 ACTIVE CELLS= 1421 NUMBER OF EQUATIONS=    1421
 SOLVING FOR ZETA FOR LAYER     2 ZONE     2

     633 UPPER PART EQS.       642 LOWER PART EQS.    BAND WIDTH + 1 =   35
 STRESS PERIOD=  3 TIMESTEP=  3 LAYER=  2 ZONE=  2 ACTIVE CELLS= 1275 NUMBER OF EQUATIONS=    1275

 SOLVING FOR HEAD 

 NO OUTPUT CONTROL FOR STRESS PERIOD    3   TIME STEP    4
 SOLVING FOR ZETA FOR LAYER     1 ZONE     2

     707 UPPER PART EQS.       727 LOWER PART EQS.    BAND WIDTH + 1 =   41
 STRESS PERIOD=  3 TIMESTEP=  4 LAYER=  1 ZONE=  2 ACTIVE CELLS= 1434 NUMBER OF EQUATIONS=    1434
 SOLVING FOR ZETA FOR LAYER     2 ZONE     2

     633 UPPER PART EQS.       642 LOWER PART EQS.    BAND WIDTH + 1 =   35
 STRESS PERIOD=  3 TIMESTEP=  4 LAYER=  2 ZONE=  2 ACTIVE CELLS= 1275 NUMBER OF EQUATIONS=    1275

 SOLVING FOR HEAD 

 NO OUTPUT CONTROL FOR STRESS PERIOD    3   TIME STEP    5
 SOLVING FOR ZETA FOR LAYER     1 ZONE     2

     711 UPPER PART EQS.       727 LOWER PART EQS.    BAND WIDTH + 1 =   37
 STRESS PERIOD=  3 TIMESTEP=  5 LAYER=  1 ZONE=  2 ACTIVE CELLS= 1438 NUMBER OF EQUATIONS=    1438
 SOLVING FOR ZETA FOR LAYER     2 ZONE     2

     633 UPPER PART EQS.       642 LOWER PART EQS.    BAND WIDTH + 1 =   35
 STRESS PERIOD=  3 TIMESTEP=  5 LAYER=  2 ZONE=  2 ACTIVE CELLS= 1275 NUMBER OF EQUATIONS=    1275

 SOLVING FOR HEAD 

 NO OUTPUT CONTROL FOR STRESS PERIOD    3   TIME STEP    6
 SOLVING FOR ZETA FOR LAYER     1 ZONE     2

     711 UPPER PART EQS.       709 LOWER PART EQS.    BAND WIDTH + 1 =   32
 STRESS PERIOD=  3 TIMESTEP=  6 LAYER=  1 ZONE=  2 ACTIVE CELLS= 1420 NUMBER OF EQUATIONS=    1420
 SOLVING FOR ZETA FOR LAYER     2 ZONE     2

     633 UPPER PART EQS.       642 LOWER PART EQS.    BAND WIDTH + 1 =   35
 STRESS PERIOD=  3 TIMESTEP=  6 LAYER=  2 ZONE=  2 ACTIVE CELLS= 1275 NUMBER OF EQUATIONS=    1275

 SOLVING FOR HEAD 

 NO OUTPUT CONTROL FOR STRESS PERIOD    3   TIME STEP    7
 SOLVING FOR ZETA FOR LAYER     1 ZONE     2

     700 UPPER PART EQS.       725 LOWER PART EQS.    BAND WIDTH + 1 =   46
 STRESS PERIOD=  3 TIMESTEP=  7 LAYER=  1 ZONE=  2 ACTIVE CELLS= 1425 NUMBER OF EQUATIONS=    1425
 SOLVING FOR ZETA FOR LAYER     2 ZONE     2

     633 UPPER PART EQS.       642 LOWER PART EQS.    BAND WIDTH + 1 =   35
 STRESS PERIOD=  3 TIMESTEP=  7 LAYER=  2 ZONE=  2 ACTIVE CELLS= 1275 NUMBER OF EQUATIONS=    1275

 SOLVING FOR HEAD 

 NO OUTPUT CONTROL FOR STRESS PERIOD    3   TIME STEP    8
 SOLVING FOR ZETA FOR LAYER     1 ZONE     2

     711 UPPER PART EQS.       725 LOWER PART EQS.    BAND WIDTH + 1 =   35
 STRESS PERIOD=  3 TIMESTEP=  8 LAYER=  1 ZONE=  2 ACTIVE CELLS= 1436 NUMBER OF EQUATIONS=    1436
 SOLVING FOR ZETA FOR LAYER     2 ZONE     2

     633 UPPER PART EQS.       642 LOWER PART EQS.    BAND WIDTH + 1 =   35
 STRESS PERIOD=  3 TIMESTEP=  8 LAYER=  2 ZONE=  2 ACTIVE CELLS= 1275 NUMBER OF EQUATIONS=    1275

 SOLVING FOR HEAD 

 NO OUTPUT CONTROL FOR STRESS PERIOD    3   TIME STEP    9
 SOLVING FOR ZETA FOR LAYER     1 ZONE     2

     707 UPPER PART EQS.       721 LOWER PART EQS.    BAND WIDTH + 1 =   35
 STRESS PERIOD=  3 TIMESTEP=  9 LAYER=  1 ZONE=  2 ACTIVE CELLS= 1428 NUMBER OF EQUATIONS=    1428
 SOLVING FOR ZETA FOR LAYER     2 ZONE     2

     633 UPPER PART EQS.       641 LOWER PART EQS.    BAND WIDTH + 1 =   35
 STRESS PERIOD=  3 TIMESTEP=  9 LAYER=  2 ZONE=  2 ACTIVE CELLS= 1274 NUMBER OF EQUATIONS=    1274

 SOLVING FOR HEAD 

 NO OUTPUT CONTROL FOR STRESS PERIOD    3   TIME STEP   10
 SOLVING FOR ZETA FOR LAYER     1 ZONE     2

     711 UPPER PART EQS.       717 LOWER PART EQS.    BAND WIDTH + 1 =   28
 STRESS PERIOD=  3 TIMESTEP= 10 LAYER=  1 ZONE=  2 ACTIVE CELLS= 1428 NUMBER OF EQUATIONS=    1428
 SOLVING FOR ZETA FOR LAYER     2 ZONE     2

     633 UPPER PART EQS.       640 LOWER PART EQS.    BAND WIDTH + 1 =   34
 STRESS PERIOD=  3 TIMESTEP= 10 LAYER=  2 ZONE=  2 ACTIVE CELLS= 1273 NUMBER OF EQUATIONS=    1273

 SOLVING FOR HEAD 

 NO OUTPUT CONTROL FOR STRESS PERIOD    3   TIME STEP   11
 SOLVING FOR ZETA FOR LAYER     1 ZONE     2

     702 UPPER PART EQS.       729 LOWER PART EQS.    BAND WIDTH + 1 =   47
 STRESS PERIOD=  3 TIMESTEP= 11 LAYER=  1 ZONE=  2 ACTIVE CELLS= 1431 NUMBER OF EQUATIONS=    1431
 SOLVING FOR ZETA FOR LAYER     2 ZONE     2

     633 UPPER PART EQS.       640 LOWER PART EQS.    BAND WIDTH + 1 =   34
 STRESS PERIOD=  3 TIMESTEP= 11 LAYER=  2 ZONE=  2 ACTIVE CELLS= 1273 NUMBER OF EQUATIONS=    1273

 SOLVING FOR HEAD 

 NO OUTPUT CONTROL FOR STRESS PERIOD    3   TIME STEP   12
 SOLVING FOR ZETA FOR LAYER     1 ZONE     2

     709 UPPER PART EQS.       719 LOWER PART EQS.    BAND WIDTH + 1 =   30
 STRESS PERIOD=  3 TIMESTEP= 12 LAYER=  1 ZONE=  2 ACTIVE CELLS= 1428 NUMBER OF EQUATIONS=    1428
 SOLVING FOR ZETA FOR LAYER     2 ZONE     2

     633 UPPER PART EQS.       640 LOWER PART EQS.    BAND WIDTH + 1 =   34
 STRESS PERIOD=  3 TIMESTEP= 12 LAYER=  2 ZONE=  2 ACTIVE CELLS= 1273 NUMBER OF EQUATIONS=    1273

 SOLVING FOR HEAD 

 NO OUTPUT CONTROL FOR STRESS PERIOD    3   TIME STEP   13
 SOLVING FOR ZETA FOR LAYER     1 ZONE     2

     711 UPPER PART EQS.       729 LOWER PART EQS.    BAND WIDTH + 1 =   38
 STRESS PERIOD=  3 TIMESTEP= 13 LAYER=  1 ZONE=  2 ACTIVE CELLS= 1440 NUMBER OF EQUATIONS=    1440
 SOLVING FOR ZETA FOR LAYER     2 ZONE     2

     633 UPPER PART EQS.       640 LOWER PART EQS.    BAND WIDTH + 1 =   34
 STRESS PERIOD=  3 TIMESTEP= 13 LAYER=  2 ZONE=  2 ACTIVE CELLS= 1273 NUMBER OF EQUATIONS=    1273

 SOLVING FOR HEAD 

 NO OUTPUT CONTROL FOR STRESS PERIOD    3   TIME STEP   14
 SOLVING FOR ZETA FOR LAYER     1 ZONE     2

     709 UPPER PART EQS.       723 LOWER PART EQS.    BAND WIDTH + 1 =   35
 STRESS PERIOD=  3 TIMESTEP= 14 LAYER=  1 ZONE=  2 ACTIVE CELLS= 1432 NUMBER OF EQUATIONS=    1432
 SOLVING FOR ZETA FOR LAYER     2 ZONE     2

     633 UPPER PART EQS.       640 LOWER PART EQS.    BAND WIDTH + 1 =   34
 STRESS PERIOD=  3 TIMESTEP= 14 LAYER=  2 ZONE=  2 ACTIVE CELLS= 1273 NUMBER OF EQUATIONS=    1273

 SOLVING FOR HEAD 

 NO OUTPUT CONTROL FOR STRESS PERIOD    3   TIME STEP   15
 SOLVING FOR ZETA FOR LAYER     1 ZONE     2

     700 UPPER PART EQS.       719 LOWER PART EQS.    BAND WIDTH + 1 =   39
 STRESS PERIOD=  3 TIMESTEP= 15 LAYER=  1 ZONE=  2 ACTIVE CELLS= 1419 NUMBER OF EQUATIONS=    1419
 SOLVING FOR ZETA FOR LAYER     2 ZONE     2

     633 UPPER PART EQS.       640 LOWER PART EQS.    BAND WIDTH + 1 =   34
 STRESS PERIOD=  3 TIMESTEP= 15 LAYER=  2 ZONE=  2 ACTIVE CELLS= 1273 NUMBER OF EQUATIONS=    1273

 SOLVING FOR HEAD 

 NO OUTPUT CONTROL FOR STRESS PERIOD    3   TIME STEP   16
 SOLVING FOR ZETA FOR LAYER     1 ZONE     2

     711 UPPER PART EQS.       735 LOWER PART EQS.    BAND WIDTH + 1 =   44
 STRESS PERIOD=  3 TIMESTEP= 16 LAYER=  1 ZONE=  2 ACTIVE CELLS= 1446 NUMBER OF EQUATIONS=    1446
 SOLVING FOR ZETA FOR LAYER     2 ZONE     2

     633 UPPER PART EQS.       640 LOWER PART EQS.    BAND WIDTH + 1 =   34
 STRESS PERIOD=  3 TIMESTEP= 16 LAYER=  2 ZONE=  2 ACTIVE CELLS= 1273 NUMBER OF EQUATIONS=    1273

 SOLVING FOR HEAD 

 NO OUTPUT CONTROL FOR STRESS PERIOD    3   TIME STEP   17
 SOLVING FOR ZETA FOR LAYER     1 ZONE     2

     709 UPPER PART EQS.       729 LOWER PART EQS.    BAND WIDTH + 1 =   40
 STRESS PERIOD=  3 TIMESTEP= 17 LAYER=  1 ZONE=  2 ACTIVE CELLS= 1438 NUMBER OF EQUATIONS=    1438
 SOLVING FOR ZETA FOR LAYER     2 ZONE     2

     633 UPPER PART EQS.       640 LOWER PART EQS.    BAND WIDTH + 1 =   34
 STRESS PERIOD=  3 TIMESTEP= 17 LAYER=  2 ZONE=  2 ACTIVE CELLS= 1273 NUMBER OF EQUATIONS=    1273

 SOLVING FOR HEAD 

 NO OUTPUT CONTROL FOR STRESS PERIOD    3   TIME STEP   18
 SOLVING FOR ZETA FOR LAYER     1 ZONE     2

     713 UPPER PART EQS.       709 LOWER PART EQS.    BAND WIDTH + 1 =   35
 STRESS PERIOD=  3 TIMESTEP= 18 LAYER=  1 ZONE=  2 ACTIVE CELLS= 1422 NUMBER OF EQUATIONS=    1422
 SOLVING FOR ZETA FOR LAYER     2 ZONE     2

     633 UPPER PART EQS.       640 LOWER PART EQS.    BAND WIDTH + 1 =   34
 STRESS PERIOD=  3 TIMESTEP= 18 LAYER=  2 ZONE=  2 ACTIVE CELLS= 1273 NUMBER OF EQUATIONS=    1273

 SOLVING FOR HEAD 

 NO OUTPUT CONTROL FOR STRESS PERIOD    3   TIME STEP   19
 SOLVING FOR ZETA FOR LAYER     1 ZONE     2

     698 UPPER PART EQS.       729 LOWER PART EQS.    BAND WIDTH + 1 =   51
 STRESS PERIOD=  3 TIMESTEP= 19 LAYER=  1 ZONE=  2 ACTIVE CELLS= 1427 NUMBER OF EQUATIONS=    1427
 SOLVING FOR ZETA FOR LAYER     2 ZONE     2

     633 UPPER PART EQS.       640 LOWER PART EQS.    BAND WIDTH + 1 =   34
 STRESS PERIOD=  3 TIMESTEP= 19 LAYER=  2 ZONE=  2 ACTIVE CELLS= 1273 NUMBER OF EQUATIONS=    1273

 SOLVING FOR HEAD 

 NO OUTPUT CONTROL FOR STRESS PERIOD    3   TIME STEP   20
 SOLVING FOR ZETA FOR LAYER     1 ZONE     2

     709 UPPER PART EQS.       733 LOWER PART EQS.    BAND WIDTH + 1 =   44
 STRESS PERIOD=  3 TIMESTEP= 20 LAYER=  1 ZONE=  2 ACTIVE CELLS= 1442 NUMBER OF EQUATIONS=    1442
 SOLVING FOR ZETA FOR LAYER     2 ZONE     2

     633 UPPER PART EQS.       640 LOWER PART EQS.    BAND WIDTH + 1 =   34
 STRESS PERIOD=  3 TIMESTEP= 20 LAYER=  2 ZONE=  2 ACTIVE CELLS= 1273 NUMBER OF EQUATIONS=    1273

 SOLVING FOR HEAD 

 NO OUTPUT CONTROL FOR STRESS PERIOD    3   TIME STEP   21
 SOLVING FOR ZETA FOR LAYER     1 ZONE     2

     713 UPPER PART EQS.       723 LOWER PART EQS.    BAND WIDTH + 1 =   30
 STRESS PERIOD=  3 TIMESTEP= 21 LAYER=  1 ZONE=  2 ACTIVE CELLS= 1436 NUMBER OF EQUATIONS=    1436
 SOLVING FOR ZETA FOR LAYER     2 ZONE     2

     633 UPPER PART EQS.       640 LOWER PART EQS.    BAND WIDTH + 1 =   34
 STRESS PERIOD=  3 TIMESTEP= 21 LAYER=  2 ZONE=  2 ACTIVE CELLS= 1273 NUMBER OF EQUATIONS=    1273

 SOLVING FOR HEAD 

 NO OUTPUT CONTROL FOR STRESS PERIOD    3   TIME STEP   22
 SOLVING FOR ZETA FOR LAYER     1 ZONE     2

     711 UPPER PART EQS.       725 LOWER PART EQS.    BAND WIDTH + 1 =   34
 STRESS PERIOD=  3 TIMESTEP= 22 LAYER=  1 ZONE=  2 ACTIVE CELLS= 1436 NUMBER OF EQUATIONS=    1436
 SOLVING FOR ZETA FOR LAYER     2 ZONE     2

     633 UPPER PART EQS.       640 LOWER PART EQS.    BAND WIDTH + 1 =   34
 STRESS PERIOD=  3 TIMESTEP= 22 LAYER=  2 ZONE=  2 ACTIVE CELLS= 1273 NUMBER OF EQUATIONS=    1273

 SOLVING FOR HEAD 

 NO OUTPUT CONTROL FOR STRESS PERIOD    3   TIME STEP   23
 SOLVING FOR ZETA FOR LAYER     1 ZONE     2

     704 UPPER PART EQS.       723 LOWER PART EQS.    BAND WIDTH + 1 =   39
 STRESS PERIOD=  3 TIMESTEP= 23 LAYER=  1 ZONE=  2 ACTIVE CELLS= 1427 NUMBER OF EQUATIONS=    1427
 SOLVING FOR ZETA FOR LAYER     2 ZONE     2

     633 UPPER PART EQS.       640 LOWER PART EQS.    BAND WIDTH + 1 =   34
 STRESS PERIOD=  3 TIMESTEP= 23 LAYER=  2 ZONE=  2 ACTIVE CELLS= 1273 NUMBER OF EQUATIONS=    1273

 SOLVING FOR HEAD 

 NO OUTPUT CONTROL FOR STRESS PERIOD    3   TIME STEP   24
 SOLVING FOR ZETA FOR LAYER     1 ZONE     2

     709 UPPER PART EQS.       721 LOWER PART EQS.    BAND WIDTH + 1 =   32
 STRESS PERIOD=  3 TIMESTEP= 24 LAYER=  1 ZONE=  2 ACTIVE CELLS= 1430 NUMBER OF EQUATIONS=    1430
 SOLVING FOR ZETA FOR LAYER     2 ZONE     2

     633 UPPER PART EQS.       640 LOWER PART EQS.    BAND WIDTH + 1 =   34
 STRESS PERIOD=  3 TIMESTEP= 24 LAYER=  2 ZONE=  2 ACTIVE CELLS= 1273 NUMBER OF EQUATIONS=    1273

 SOLVING FOR HEAD 

 NO OUTPUT CONTROL FOR STRESS PERIOD    3   TIME STEP   25
 SOLVING FOR ZETA FOR LAYER     1 ZONE     2

     715 UPPER PART EQS.       731 LOWER PART EQS.    BAND WIDTH + 1 =   36
 STRESS PERIOD=  3 TIMESTEP= 25 LAYER=  1 ZONE=  2 ACTIVE CELLS= 1446 NUMBER OF EQUATIONS=    1446
 SOLVING FOR ZETA FOR LAYER     2 ZONE     2

     633 UPPER PART EQS.       640 LOWER PART EQS.    BAND WIDTH + 1 =   34
 STRESS PERIOD=  3 TIMESTEP= 25 LAYER=  2 ZONE=  2 ACTIVE CELLS= 1273 NUMBER OF EQUATIONS=    1273

 SOLVING FOR HEAD 

 NO OUTPUT CONTROL FOR STRESS PERIOD    3   TIME STEP   26
 SOLVING FOR ZETA FOR LAYER     1 ZONE     2

     715 UPPER PART EQS.       725 LOWER PART EQS.    BAND WIDTH + 1 =   30
 STRESS PERIOD=  3 TIMESTEP= 26 LAYER=  1 ZONE=  2 ACTIVE CELLS= 1440 NUMBER OF EQUATIONS=    1440
 SOLVING FOR ZETA FOR LAYER     2 ZONE     2

     633 UPPER PART EQS.       640 LOWER PART EQS.    BAND WIDTH + 1 =   34
 STRESS PERIOD=  3 TIMESTEP= 26 LAYER=  2 ZONE=  2 ACTIVE CELLS= 1273 NUMBER OF EQUATIONS=    1273

 SOLVING FOR HEAD 

 NO OUTPUT CONTROL FOR STRESS PERIOD    3   TIME STEP   27
 SOLVING FOR ZETA FOR LAYER     1 ZONE     2

     708 UPPER PART EQS.       721 LOWER PART EQS.    BAND WIDTH + 1 =   33
 STRESS PERIOD=  3 TIMESTEP= 27 LAYER=  1 ZONE=  2 ACTIVE CELLS= 1429 NUMBER OF EQUATIONS=    1429
 SOLVING FOR ZETA FOR LAYER     2 ZONE     2

     633 UPPER PART EQS.       640 LOWER PART EQS.    BAND WIDTH + 1 =   34
 STRESS PERIOD=  3 TIMESTEP= 27 LAYER=  2 ZONE=  2 ACTIVE CELLS= 1273 NUMBER OF EQUATIONS=    1273

 SOLVING FOR HEAD 

 NO OUTPUT CONTROL FOR STRESS PERIOD    3   TIME STEP   28
 SOLVING FOR ZETA FOR LAYER     1 ZONE     2

     711 UPPER PART EQS.       727 LOWER PART EQS.    BAND WIDTH + 1 =   36
 STRESS PERIOD=  3 TIMESTEP= 28 LAYER=  1 ZONE=  2 ACTIVE CELLS= 1438 NUMBER OF EQUATIONS=    1438
 SOLVING FOR ZETA FOR LAYER     2 ZONE     2

     633 UPPER PART EQS.       640 LOWER PART EQS.    BAND WIDTH + 1 =   34
 STRESS PERIOD=  3 TIMESTEP= 28 LAYER=  2 ZONE=  2 ACTIVE CELLS= 1273 NUMBER OF EQUATIONS=    1273

 SOLVING FOR HEAD 

 NO OUTPUT CONTROL FOR STRESS PERIOD    3   TIME STEP   29
 SOLVING FOR ZETA FOR LAYER     1 ZONE     2

     715 UPPER PART EQS.       733 LOWER PART EQS.    BAND WIDTH + 1 =   38
 STRESS PERIOD=  3 TIMESTEP= 29 LAYER=  1 ZONE=  2 ACTIVE CELLS= 1448 NUMBER OF EQUATIONS=    1448
 SOLVING FOR ZETA FOR LAYER     2 ZONE     2

     633 UPPER PART EQS.       639 LOWER PART EQS.    BAND WIDTH + 1 =   34
 STRESS PERIOD=  3 TIMESTEP= 29 LAYER=  2 ZONE=  2 ACTIVE CELLS= 1272 NUMBER OF EQUATIONS=    1272

 SOLVING FOR HEAD 

 NO OUTPUT CONTROL FOR STRESS PERIOD    3   TIME STEP   30
 SOLVING FOR ZETA FOR LAYER     1 ZONE     2

     717 UPPER PART EQS.       718 LOWER PART EQS.    BAND WIDTH + 1 =   30
 STRESS PERIOD=  3 TIMESTEP= 30 LAYER=  1 ZONE=  2 ACTIVE CELLS= 1435 NUMBER OF EQUATIONS=    1435
 SOLVING FOR ZETA FOR LAYER     2 ZONE     2

     635 UPPER PART EQS.       640 LOWER PART EQS.    BAND WIDTH + 1 =   34
 STRESS PERIOD=  3 TIMESTEP= 30 LAYER=  2 ZONE=  2 ACTIVE CELLS= 1275 NUMBER OF EQUATIONS=    1275

 SOLVING FOR HEAD 

 NO OUTPUT CONTROL FOR STRESS PERIOD    3   TIME STEP   31
 SOLVING FOR ZETA FOR LAYER     1 ZONE     2

     708 UPPER PART EQS.       732 LOWER PART EQS.    BAND WIDTH + 1 =   44
 STRESS PERIOD=  3 TIMESTEP= 31 LAYER=  1 ZONE=  2 ACTIVE CELLS= 1440 NUMBER OF EQUATIONS=    1440
 SOLVING FOR ZETA FOR LAYER     2 ZONE     2

     635 UPPER PART EQS.       639 LOWER PART EQS.    BAND WIDTH + 1 =   34
 STRESS PERIOD=  3 TIMESTEP= 31 LAYER=  2 ZONE=  2 ACTIVE CELLS= 1274 NUMBER OF EQUATIONS=    1274

 SOLVING FOR HEAD 

 NO OUTPUT CONTROL FOR STRESS PERIOD    3   TIME STEP   32
 SOLVING FOR ZETA FOR LAYER     1 ZONE     2

     711 UPPER PART EQS.       736 LOWER PART EQS.    BAND WIDTH + 1 =   45
 STRESS PERIOD=  3 TIMESTEP= 32 LAYER=  1 ZONE=  2 ACTIVE CELLS= 1447 NUMBER OF EQUATIONS=    1447
 SOLVING FOR ZETA FOR LAYER     2 ZONE     2

     635 UPPER PART EQS.       640 LOWER PART EQS.    BAND WIDTH + 1 =   34
 STRESS PERIOD=  3 TIMESTEP= 32 LAYER=  2 ZONE=  2 ACTIVE CELLS= 1275 NUMBER OF EQUATIONS=    1275

 SOLVING FOR HEAD 

 NO OUTPUT CONTROL FOR STRESS PERIOD    3   TIME STEP   33
 SOLVING FOR ZETA FOR LAYER     1 ZONE     2

     723 UPPER PART EQS.       716 LOWER PART EQS.    BAND WIDTH + 1 =   39
 STRESS PERIOD=  3 TIMESTEP= 33 LAYER=  1 ZONE=  2 ACTIVE CELLS= 1439 NUMBER OF EQUATIONS=    1439
 SOLVING FOR ZETA FOR LAYER     2 ZONE     2

     635 UPPER PART EQS.       639 LOWER PART EQS.    BAND WIDTH + 1 =   34
 STRESS PERIOD=  3 TIMESTEP= 33 LAYER=  2 ZONE=  2 ACTIVE CELLS= 1274 NUMBER OF EQUATIONS=    1274

 SOLVING FOR HEAD 

 NO OUTPUT CONTROL FOR STRESS PERIOD    3   TIME STEP   34
 SOLVING FOR ZETA FOR LAYER     1 ZONE     2

     715 UPPER PART EQS.       730 LOWER PART EQS.    BAND WIDTH + 1 =   36
 STRESS PERIOD=  3 TIMESTEP= 34 LAYER=  1 ZONE=  2 ACTIVE CELLS= 1445 NUMBER OF EQUATIONS=    1445
 SOLVING FOR ZETA FOR LAYER     2 ZONE     2

     635 UPPER PART EQS.       640 LOWER PART EQS.    BAND WIDTH + 1 =   34
 STRESS PERIOD=  3 TIMESTEP= 34 LAYER=  2 ZONE=  2 ACTIVE CELLS= 1275 NUMBER OF EQUATIONS=    1275

 SOLVING FOR HEAD 

 NO OUTPUT CONTROL FOR STRESS PERIOD    3   TIME STEP   35
 SOLVING FOR ZETA FOR LAYER     1 ZONE     2

     710 UPPER PART EQS.       732 LOWER PART EQS.    BAND WIDTH + 1 =   42
 STRESS PERIOD=  3 TIMESTEP= 35 LAYER=  1 ZONE=  2 ACTIVE CELLS= 1442 NUMBER OF EQUATIONS=    1442
 SOLVING FOR ZETA FOR LAYER     2 ZONE     2

     635 UPPER PART EQS.       639 LOWER PART EQS.    BAND WIDTH + 1 =   34
 STRESS PERIOD=  3 TIMESTEP= 35 LAYER=  2 ZONE=  2 ACTIVE CELLS= 1274 NUMBER OF EQUATIONS=    1274

 SOLVING FOR HEAD 

 NO OUTPUT CONTROL FOR STRESS PERIOD    3   TIME STEP   36
 SOLVING FOR ZETA FOR LAYER     1 ZONE     2

     713 UPPER PART EQS.       724 LOWER PART EQS.    BAND WIDTH + 1 =   31
 STRESS PERIOD=  3 TIMESTEP= 36 LAYER=  1 ZONE=  2 ACTIVE CELLS= 1437 NUMBER OF EQUATIONS=    1437
 SOLVING FOR ZETA FOR LAYER     2 ZONE     2

     635 UPPER PART EQS.       642 LOWER PART EQS.    BAND WIDTH + 1 =   34
 STRESS PERIOD=  3 TIMESTEP= 36 LAYER=  2 ZONE=  2 ACTIVE CELLS= 1277 NUMBER OF EQUATIONS=    1277

 SOLVING FOR HEAD 

 NO OUTPUT CONTROL FOR STRESS PERIOD    3   TIME STEP   37
 SOLVING FOR ZETA FOR LAYER     1 ZONE     2

     717 UPPER PART EQS.       732 LOWER PART EQS.    BAND WIDTH + 1 =   35
 STRESS PERIOD=  3 TIMESTEP= 37 LAYER=  1 ZONE=  2 ACTIVE CELLS= 1449 NUMBER OF EQUATIONS=    1449
 SOLVING FOR ZETA FOR LAYER     2 ZONE     2

     635 UPPER PART EQS.       641 LOWER PART EQS.    BAND WIDTH + 1 =   34
 STRESS PERIOD=  3 TIMESTEP= 37 LAYER=  2 ZONE=  2 ACTIVE CELLS= 1276 NUMBER OF EQUATIONS=    1276

 SOLVING FOR HEAD 

 NO OUTPUT CONTROL FOR STRESS PERIOD    3   TIME STEP   38
 SOLVING FOR ZETA FOR LAYER     1 ZONE     2

     719 UPPER PART EQS.       720 LOWER PART EQS.    BAND WIDTH + 1 =   31
 STRESS PERIOD=  3 TIMESTEP= 38 LAYER=  1 ZONE=  2 ACTIVE CELLS= 1439 NUMBER OF EQUATIONS=    1439
 SOLVING FOR ZETA FOR LAYER     2 ZONE     2

     635 UPPER PART EQS.       642 LOWER PART EQS.    BAND WIDTH + 1 =   34
 STRESS PERIOD=  3 TIMESTEP= 38 LAYER=  2 ZONE=  2 ACTIVE CELLS= 1277 NUMBER OF EQUATIONS=    1277

 SOLVING FOR HEAD 

 NO OUTPUT CONTROL FOR STRESS PERIOD    3   TIME STEP   39
 SOLVING FOR ZETA FOR LAYER     1 ZONE     2

     708 UPPER PART EQS.       726 LOWER PART EQS.    BAND WIDTH + 1 =   38
 STRESS PERIOD=  3 TIMESTEP= 39 LAYER=  1 ZONE=  2 ACTIVE CELLS= 1434 NUMBER OF EQUATIONS=    1434
 SOLVING FOR ZETA FOR LAYER     2 ZONE     2

     635 UPPER PART EQS.       641 LOWER PART EQS.    BAND WIDTH + 1 =   34
 STRESS PERIOD=  3 TIMESTEP= 39 LAYER=  2 ZONE=  2 ACTIVE CELLS= 1276 NUMBER OF EQUATIONS=    1276

 SOLVING FOR HEAD 

 NO OUTPUT CONTROL FOR STRESS PERIOD    3   TIME STEP   40
 SOLVING FOR ZETA FOR LAYER     1 ZONE     2

     709 UPPER PART EQS.       736 LOWER PART EQS.    BAND WIDTH + 1 =   47
 STRESS PERIOD=  3 TIMESTEP= 40 LAYER=  1 ZONE=  2 ACTIVE CELLS= 1445 NUMBER OF EQUATIONS=    1445
 SOLVING FOR ZETA FOR LAYER     2 ZONE     2

     635 UPPER PART EQS.       642 LOWER PART EQS.    BAND WIDTH + 1 =   34
 STRESS PERIOD=  3 TIMESTEP= 40 LAYER=  2 ZONE=  2 ACTIVE CELLS= 1277 NUMBER OF EQUATIONS=    1277

 SOLVING FOR HEAD 

 NO OUTPUT CONTROL FOR STRESS PERIOD    3   TIME STEP   41
 SOLVING FOR ZETA FOR LAYER     1 ZONE     2

     723 UPPER PART EQS.       732 LOWER PART EQS.    BAND WIDTH + 1 =   30
 STRESS PERIOD=  3 TIMESTEP= 41 LAYER=  1 ZONE=  2 ACTIVE CELLS= 1455 NUMBER OF EQUATIONS=    1455
 SOLVING FOR ZETA FOR LAYER     2 ZONE     2

     635 UPPER PART EQS.       641 LOWER PART EQS.    BAND WIDTH + 1 =   34
 STRESS PERIOD=  3 TIMESTEP= 41 LAYER=  2 ZONE=  2 ACTIVE CELLS= 1276 NUMBER OF EQUATIONS=    1276

 SOLVING FOR HEAD 

 NO OUTPUT CONTROL FOR STRESS PERIOD    3   TIME STEP   42
 SOLVING FOR ZETA FOR LAYER     1 ZONE     2

     719 UPPER PART EQS.       720 LOWER PART EQS.    BAND WIDTH + 1 =   31
 STRESS PERIOD=  3 TIMESTEP= 42 LAYER=  1 ZONE=  2 ACTIVE CELLS= 1439 NUMBER OF EQUATIONS=    1439
 SOLVING FOR ZETA FOR LAYER     2 ZONE     2

     635 UPPER PART EQS.       642 LOWER PART EQS.    BAND WIDTH + 1 =   34
 STRESS PERIOD=  3 TIMESTEP= 42 LAYER=  2 ZONE=  2 ACTIVE CELLS= 1277 NUMBER OF EQUATIONS=    1277

 SOLVING FOR HEAD 

 NO OUTPUT CONTROL FOR STRESS PERIOD    3   TIME STEP   43
 SOLVING FOR ZETA FOR LAYER     1 ZONE     2

     710 UPPER PART EQS.       724 LOWER PART EQS.    BAND WIDTH + 1 =   34
 STRESS PERIOD=  3 TIMESTEP= 43 LAYER=  1 ZONE=  2 ACTIVE CELLS= 1434 NUMBER OF EQUATIONS=    1434
 SOLVING FOR ZETA FOR LAYER     2 ZONE     2

     635 UPPER PART EQS.       641 LOWER PART EQS.    BAND WIDTH + 1 =   34
 STRESS PERIOD=  3 TIMESTEP= 43 LAYER=  2 ZONE=  2 ACTIVE CELLS= 1276 NUMBER OF EQUATIONS=    1276

 SOLVING FOR HEAD 

 NO OUTPUT CONTROL FOR STRESS PERIOD    3   TIME STEP   44
 SOLVING FOR ZETA FOR LAYER     1 ZONE     2

     711 UPPER PART EQS.       736 LOWER PART EQS.    BAND WIDTH + 1 =   45
 STRESS PERIOD=  3 TIMESTEP= 44 LAYER=  1 ZONE=  2 ACTIVE CELLS= 1447 NUMBER OF EQUATIONS=    1447
 SOLVING FOR ZETA FOR LAYER     2 ZONE     2

     635 UPPER PART EQS.       640 LOWER PART EQS.    BAND WIDTH + 1 =   33
 STRESS PERIOD=  3 TIMESTEP= 44 LAYER=  2 ZONE=  2 ACTIVE CELLS= 1275 NUMBER OF EQUATIONS=    1275

 SOLVING FOR HEAD 

 NO OUTPUT CONTROL FOR STRESS PERIOD    3   TIME STEP   45
 SOLVING FOR ZETA FOR LAYER     1 ZONE     2

     719 UPPER PART EQS.       722 LOWER PART EQS.    BAND WIDTH + 1 =   30
 STRESS PERIOD=  3 TIMESTEP= 45 LAYER=  1 ZONE=  2 ACTIVE CELLS= 1441 NUMBER OF EQUATIONS=    1441
 SOLVING FOR ZETA FOR LAYER     2 ZONE     2

     635 UPPER PART EQS.       639 LOWER PART EQS.    BAND WIDTH + 1 =   33
 STRESS PERIOD=  3 TIMESTEP= 45 LAYER=  2 ZONE=  2 ACTIVE CELLS= 1274 NUMBER OF EQUATIONS=    1274

 SOLVING FOR HEAD 

 NO OUTPUT CONTROL FOR STRESS PERIOD    3   TIME STEP   46
 SOLVING FOR ZETA FOR LAYER     1 ZONE     2

     713 UPPER PART EQS.       734 LOWER PART EQS.    BAND WIDTH + 1 =   41
 STRESS PERIOD=  3 TIMESTEP= 46 LAYER=  1 ZONE=  2 ACTIVE CELLS= 1447 NUMBER OF EQUATIONS=    1447
 SOLVING FOR ZETA FOR LAYER     2 ZONE     2

     635 UPPER PART EQS.       640 LOWER PART EQS.    BAND WIDTH + 1 =   33
 STRESS PERIOD=  3 TIMESTEP= 46 LAYER=  2 ZONE=  2 ACTIVE CELLS= 1275 NUMBER OF EQUATIONS=    1275

 SOLVING FOR HEAD 

 NO OUTPUT CONTROL FOR STRESS PERIOD    3   TIME STEP   47
 SOLVING FOR ZETA FOR LAYER     1 ZONE     2

     714 UPPER PART EQS.       728 LOWER PART EQS.    BAND WIDTH + 1 =   34
 STRESS PERIOD=  3 TIMESTEP= 47 LAYER=  1 ZONE=  2 ACTIVE CELLS= 1442 NUMBER OF EQUATIONS=    1442
 SOLVING FOR ZETA FOR LAYER     2 ZONE     2

     635 UPPER PART EQS.       637 LOWER PART EQS.    BAND WIDTH + 1 =   32
 STRESS PERIOD=  3 TIMESTEP= 47 LAYER=  2 ZONE=  2 ACTIVE CELLS= 1272 NUMBER OF EQUATIONS=    1272

 SOLVING FOR HEAD 

 NO OUTPUT CONTROL FOR STRESS PERIOD    3   TIME STEP   48
 SOLVING FOR ZETA FOR LAYER     1 ZONE     2

     713 UPPER PART EQS.       724 LOWER PART EQS.    BAND WIDTH + 1 =   33
 STRESS PERIOD=  3 TIMESTEP= 48 LAYER=  1 ZONE=  2 ACTIVE CELLS= 1437 NUMBER OF EQUATIONS=    1437
 SOLVING FOR ZETA FOR LAYER     2 ZONE     2

     635 UPPER PART EQS.       638 LOWER PART EQS.    BAND WIDTH + 1 =   32
 STRESS PERIOD=  3 TIMESTEP= 48 LAYER=  2 ZONE=  2 ACTIVE CELLS= 1273 NUMBER OF EQUATIONS=    1273

 SOLVING FOR HEAD 

 NO OUTPUT CONTROL FOR STRESS PERIOD    3   TIME STEP   49
 SOLVING FOR ZETA FOR LAYER     1 ZONE     2

     719 UPPER PART EQS.       728 LOWER PART EQS.    BAND WIDTH + 1 =   30
 STRESS PERIOD=  3 TIMESTEP= 49 LAYER=  1 ZONE=  2 ACTIVE CELLS= 1447 NUMBER OF EQUATIONS=    1447
 SOLVING FOR ZETA FOR LAYER     2 ZONE     2

     635 UPPER PART EQS.       637 LOWER PART EQS.    BAND WIDTH + 1 =   32
 STRESS PERIOD=  3 TIMESTEP= 49 LAYER=  2 ZONE=  2 ACTIVE CELLS= 1272 NUMBER OF EQUATIONS=    1272

 SOLVING FOR HEAD 

 NO OUTPUT CONTROL FOR STRESS PERIOD    3   TIME STEP   50
 SOLVING FOR ZETA FOR LAYER     1 ZONE     2

     717 UPPER PART EQS.       730 LOWER PART EQS.    BAND WIDTH + 1 =   33
 STRESS PERIOD=  3 TIMESTEP= 50 LAYER=  1 ZONE=  2 ACTIVE CELLS= 1447 NUMBER OF EQUATIONS=    1447
 SOLVING FOR ZETA FOR LAYER     2 ZONE     2

     635 UPPER PART EQS.       638 LOWER PART EQS.    BAND WIDTH + 1 =   32
 STRESS PERIOD=  3 TIMESTEP= 50 LAYER=  2 ZONE=  2 ACTIVE CELLS= 1273 NUMBER OF EQUATIONS=    1273

 SOLVING FOR HEAD 

 NO OUTPUT CONTROL FOR STRESS PERIOD    3   TIME STEP   51
 SOLVING FOR ZETA FOR LAYER     1 ZONE     2

     711 UPPER PART EQS.       724 LOWER PART EQS.    BAND WIDTH + 1 =   33
 STRESS PERIOD=  3 TIMESTEP= 51 LAYER=  1 ZONE=  2 ACTIVE CELLS= 1435 NUMBER OF EQUATIONS=    1435
 SOLVING FOR ZETA FOR LAYER     2 ZONE     2

     635 UPPER PART EQS.       637 LOWER PART EQS.    BAND WIDTH + 1 =   32
 STRESS PERIOD=  3 TIMESTEP= 51 LAYER=  2 ZONE=  2 ACTIVE CELLS= 1272 NUMBER OF EQUATIONS=    1272

 SOLVING FOR HEAD 

 NO OUTPUT CONTROL FOR STRESS PERIOD    3   TIME STEP   52
 SOLVING FOR ZETA FOR LAYER     1 ZONE     2

     710 UPPER PART EQS.       734 LOWER PART EQS.    BAND WIDTH + 1 =   44
 STRESS PERIOD=  3 TIMESTEP= 52 LAYER=  1 ZONE=  2 ACTIVE CELLS= 1444 NUMBER OF EQUATIONS=    1444
 SOLVING FOR ZETA FOR LAYER     2 ZONE     2

     635 UPPER PART EQS.       638 LOWER PART EQS.    BAND WIDTH + 1 =   32
 STRESS PERIOD=  3 TIMESTEP= 52 LAYER=  2 ZONE=  2 ACTIVE CELLS= 1273 NUMBER OF EQUATIONS=    1273

 SOLVING FOR HEAD 

 NO OUTPUT CONTROL FOR STRESS PERIOD    3   TIME STEP   53
 SOLVING FOR ZETA FOR LAYER     1 ZONE     2

     723 UPPER PART EQS.       728 LOWER PART EQS.    BAND WIDTH + 1 =   27
 STRESS PERIOD=  3 TIMESTEP= 53 LAYER=  1 ZONE=  2 ACTIVE CELLS= 1451 NUMBER OF EQUATIONS=    1451
 SOLVING FOR ZETA FOR LAYER     2 ZONE     2

     635 UPPER PART EQS.       636 LOWER PART EQS.    BAND WIDTH + 1 =   32
 STRESS PERIOD=  3 TIMESTEP= 53 LAYER=  2 ZONE=  2 ACTIVE CELLS= 1271 NUMBER OF EQUATIONS=    1271

 SOLVING FOR HEAD 

 NO OUTPUT CONTROL FOR STRESS PERIOD    3   TIME STEP   54
 SOLVING FOR ZETA FOR LAYER     1 ZONE     2

     715 UPPER PART EQS.       730 LOWER PART EQS.    BAND WIDTH + 1 =   35
 STRESS PERIOD=  3 TIMESTEP= 54 LAYER=  1 ZONE=  2 ACTIVE CELLS= 1445 NUMBER OF EQUATIONS=    1445
 SOLVING FOR ZETA FOR LAYER     2 ZONE     2

     635 UPPER PART EQS.       636 LOWER PART EQS.    BAND WIDTH + 1 =   31
 STRESS PERIOD=  3 TIMESTEP= 54 LAYER=  2 ZONE=  2 ACTIVE CELLS= 1271 NUMBER OF EQUATIONS=    1271

 SOLVING FOR HEAD 

 NO OUTPUT CONTROL FOR STRESS PERIOD    3   TIME STEP   55
 SOLVING FOR ZETA FOR LAYER     1 ZONE     2

     711 UPPER PART EQS.       724 LOWER PART EQS.    BAND WIDTH + 1 =   33
 STRESS PERIOD=  3 TIMESTEP= 55 LAYER=  1 ZONE=  2 ACTIVE CELLS= 1435 NUMBER OF EQUATIONS=    1435
 SOLVING FOR ZETA FOR LAYER     2 ZONE     2

     635 UPPER PART EQS.       636 LOWER PART EQS.    BAND WIDTH + 1 =   31
 STRESS PERIOD=  3 TIMESTEP= 55 LAYER=  2 ZONE=  2 ACTIVE CELLS= 1271 NUMBER OF EQUATIONS=    1271

 SOLVING FOR HEAD 

 NO OUTPUT CONTROL FOR STRESS PERIOD    3   TIME STEP   56
 SOLVING FOR ZETA FOR LAYER     1 ZONE     2

     711 UPPER PART EQS.       730 LOWER PART EQS.    BAND WIDTH + 1 =   39
 STRESS PERIOD=  3 TIMESTEP= 56 LAYER=  1 ZONE=  2 ACTIVE CELLS= 1441 NUMBER OF EQUATIONS=    1441
 SOLVING FOR ZETA FOR LAYER     2 ZONE     2

     635 UPPER PART EQS.       635 LOWER PART EQS.    BAND WIDTH + 1 =   32
 STRESS PERIOD=  3 TIMESTEP= 56 LAYER=  2 ZONE=  2 ACTIVE CELLS= 1270 NUMBER OF EQUATIONS=    1270

 SOLVING FOR HEAD 

 NO OUTPUT CONTROL FOR STRESS PERIOD    3   TIME STEP   57
 SOLVING FOR ZETA FOR LAYER     1 ZONE     2

     718 UPPER PART EQS.       724 LOWER PART EQS.    BAND WIDTH + 1 =   29
 STRESS PERIOD=  3 TIMESTEP= 57 LAYER=  1 ZONE=  2 ACTIVE CELLS= 1442 NUMBER OF EQUATIONS=    1442
 SOLVING FOR ZETA FOR LAYER     2 ZONE     2

     635 UPPER PART EQS.       636 LOWER PART EQS.    BAND WIDTH + 1 =   31
 STRESS PERIOD=  3 TIMESTEP= 57 LAYER=  2 ZONE=  2 ACTIVE CELLS= 1271 NUMBER OF EQUATIONS=    1271

 SOLVING FOR HEAD 

 NO OUTPUT CONTROL FOR STRESS PERIOD    3   TIME STEP   58
 SOLVING FOR ZETA FOR LAYER     1 ZONE     2

     717 UPPER PART EQS.       730 LOWER PART EQS.    BAND WIDTH + 1 =   33
 STRESS PERIOD=  3 TIMESTEP= 58 LAYER=  1 ZONE=  2 ACTIVE CELLS= 1447 NUMBER OF EQUATIONS=    1447
 SOLVING FOR ZETA FOR LAYER     2 ZONE     2

     635 UPPER PART EQS.       635 LOWER PART EQS.    BAND WIDTH + 1 =   32
 STRESS PERIOD=  3 TIMESTEP= 58 LAYER=  2 ZONE=  2 ACTIVE CELLS= 1270 NUMBER OF EQUATIONS=    1270

 SOLVING FOR HEAD 

 NO OUTPUT CONTROL FOR STRESS PERIOD    3   TIME STEP   59
 SOLVING FOR ZETA FOR LAYER     1 ZONE     2

     713 UPPER PART EQS.       734 LOWER PART EQS.    BAND WIDTH + 1 =   41
 STRESS PERIOD=  3 TIMESTEP= 59 LAYER=  1 ZONE=  2 ACTIVE CELLS= 1447 NUMBER OF EQUATIONS=    1447
 SOLVING FOR ZETA FOR LAYER     2 ZONE     2

     635 UPPER PART EQS.       636 LOWER PART EQS.    BAND WIDTH + 1 =   31
 STRESS PERIOD=  3 TIMESTEP= 59 LAYER=  2 ZONE=  2 ACTIVE CELLS= 1271 NUMBER OF EQUATIONS=    1271

 SOLVING FOR HEAD 

 OUTPUT CONTROL FOR STRESS PERIOD    3   TIME STEP   60
    PRINT BUDGET
    SAVE HEAD FOR ALL LAYERS
 SOLVING FOR ZETA FOR LAYER     1 ZONE     2

     715 UPPER PART EQS.       730 LOWER PART EQS.    BAND WIDTH + 1 =   35
 STRESS PERIOD=  3 TIMESTEP= 60 LAYER=  1 ZONE=  2 ACTIVE CELLS= 1445 NUMBER OF EQUATIONS=    1445
 SOLVING FOR ZETA FOR LAYER     2 ZONE     2

     635 UPPER PART EQS.       635 LOWER PART EQS.    BAND WIDTH + 1 =   32
 STRESS PERIOD=  3 TIMESTEP= 60 LAYER=  2 ZONE=  2 ACTIVE CELLS= 1270 NUMBER OF EQUATIONS=    1270
 UBUDSV SAVING "      ZETASRF  1" ON UNIT 55 AT TIME STEP 60, STRESS PERIOD    3


                      VOLUMETRIC SWI ZONE BUDGET FOR ENTIRE MODEL
                     AT END OF TIME STEP   60 IN STRESS PERIOD   3
                                      ZONE     1
  -----------------------------------------------------------------------------------

        CUMULATIVE VOLUMES      L**3       RATES FOR THIS TIME STEP      L**3/T
        ------------------                 ------------------------

              IN:                                      IN:
              ---                                      ---
             BOUNDARIES =   133843024.0000            BOUNDARIES =        1680.0000
          CONSTANT HEAD =           0.0000         CONSTANT HEAD =           0.0000
            ZONE CHANGE =     1285174.6250           ZONE CHANGE =         106.7607
       ZONE CHG TIP/TOE =      434188.0000      ZONE CHG TIP/TOE =           4.3554
            ZONE MIXING =           0.0000           ZONE MIXING =           0.0000

               TOTAL IN =   135562384.0000              TOTAL IN =        1791.1161

             OUT:                                     OUT:
             ----                                     ----
             BOUNDARIES =   116928352.0000            BOUNDARIES =        1782.0988
          CONSTANT HEAD =           0.0000         CONSTANT HEAD =           0.0000
            ZONE CHANGE =    18928502.0000           ZONE CHANGE =           4.6315
       ZONE CHG TIP/TOE =      444889.0000      ZONE CHG TIP/TOE =           3.7395
            ZONE MIXING =           0.0000           ZONE MIXING =           0.0000

              TOTAL OUT =   136301744.0000             TOTAL OUT =        1790.4697

               IN - OUT =     -739360.0000              IN - OUT =           0.6464

    PERCENT DISCREPANCY =          -0.54     PERCENT DISCREPANCY =           0.04



                      VOLUMETRIC SWI ZONE BUDGET FOR ENTIRE MODEL
                     AT END OF TIME STEP   60 IN STRESS PERIOD   3
                                      ZONE     2
  -----------------------------------------------------------------------------------

        CUMULATIVE VOLUMES      L**3       RATES FOR THIS TIME STEP      L**3/T
        ------------------                 ------------------------

              IN:                                      IN:
              ---                                      ---
             BOUNDARIES =      741413.2500            BOUNDARIES =         102.0987
          CONSTANT HEAD =           0.0000         CONSTANT HEAD =           0.0000
            ZONE CHANGE =    18880150.0000           ZONE CHANGE =           4.4396
       ZONE CHG TIP/TOE =     1185886.3750      ZONE CHG TIP/TOE =           3.7395
            ZONE MIXING =           0.0000           ZONE MIXING =           0.0000

               TOTAL IN =    20807450.0000              TOTAL IN =         110.2779

             OUT:                                     OUT:
             ----                                     ----
             BOUNDARIES =    17655286.0000            BOUNDARIES =           0.0000
          CONSTANT HEAD =           0.0000         CONSTANT HEAD =           0.0000
            ZONE CHANGE =     2026171.3750           ZONE CHANGE =         106.7607
       ZONE CHG TIP/TOE =      385869.1875      ZONE CHG TIP/TOE =           4.1635
            ZONE MIXING =           0.0000           ZONE MIXING =           0.0000

              TOTAL OUT =    20067328.0000             TOTAL OUT =         110.9242

               IN - OUT =      740122.0000              IN - OUT =          -0.6464

    PERCENT DISCREPANCY =           3.62     PERCENT DISCREPANCY =          -0.58


 HEAD WILL BE SAVED ON UNIT   51 AT END OF TIME STEP   60, STRESS PERIOD    3
1
  VOLUMETRIC BUDGET FOR ENTIRE MODEL AT END OF TIME STEP   60, STRESS PERIOD   3
  ------------------------------------------------------------------------------

     CUMULATIVE VOLUMES      L**3       RATES FOR THIS TIME STEP      L**3/T
     ------------------                 ------------------------

           IN:                                      IN:
           ---                                      ---
             STORAGE =           0.0000               STORAGE =           0.0000
       CONSTANT HEAD =           0.0000         CONSTANT HEAD =           0.0000
               WELLS =           0.0000                 WELLS =           0.0000
     HEAD DEP BOUNDS =      741413.2500       HEAD DEP BOUNDS =         102.0987
            RECHARGE =   133850224.0000              RECHARGE =        1681.0000
          SWIADDTOCH =           0.0000            SWIADDTOCH =           0.0000

            TOTAL IN =   134591632.0000              TOTAL IN =        1783.0988

          OUT:                                     OUT:
          ----                                     ----
             STORAGE =           0.0000               STORAGE =           0.0000
       CONSTANT HEAD =           0.0000         CONSTANT HEAD =           0.0000
               WELLS =     1643625.0000                 WELLS =         250.0000
     HEAD DEP BOUNDS =   132947744.0000       HEAD DEP BOUNDS =        1533.0988
            RECHARGE =           0.0000              RECHARGE =           0.0000
          SWIADDTOCH =           0.0000            SWIADDTOCH =           0.0000

           TOTAL OUT =   134591376.0000             TOTAL OUT =        1783.0988

            IN - OUT =         256.0000              IN - OUT =           0.0000

 PERCENT DISCREPANCY =           0.00     PERCENT DISCREPANCY =           0.00






         TIME SUMMARY AT END OF TIME STEP   60 IN STRESS PERIOD    3
                    SECONDS     MINUTES      HOURS       DAYS        YEARS
                    -----------------------------------------------------------
   TIME STEP LENGTH 3.15576E+06  52596.      876.60      36.525     0.10000    
 STRESS PERIOD TIME 1.89346E+08 3.15576E+06  52596.      2191.5      6.0000    
         TOTAL TIME 6.87955E+09 1.14659E+08 1.91099E+06  79624.      218.00    
1

 SOLVING FOR HEAD 

 NO OUTPUT CONTROL FOR STRESS PERIOD    3   TIME STEP   61
 SOLVING FOR ZETA FOR LAYER     1 ZONE     2

     725 UPPER PART EQS.       726 LOWER PART EQS.    BAND WIDTH + 1 =   32
 STRESS PERIOD=  3 TIMESTEP= 61 LAYER=  1 ZONE=  2 ACTIVE CELLS= 1451 NUMBER OF EQUATIONS=    1451
 SOLVING FOR ZETA FOR LAYER     2 ZONE     2

     635 UPPER PART EQS.       636 LOWER PART EQS.    BAND WIDTH + 1 =   31
 STRESS PERIOD=  3 TIMESTEP= 61 LAYER=  2 ZONE=  2 ACTIVE CELLS= 1271 NUMBER OF EQUATIONS=    1271

 SOLVING FOR HEAD 

 NO OUTPUT CONTROL FOR STRESS PERIOD    3   TIME STEP   62
 SOLVING FOR ZETA FOR LAYER     1 ZONE     2

     716 UPPER PART EQS.       724 LOWER PART EQS.    BAND WIDTH + 1 =   29
 STRESS PERIOD=  3 TIMESTEP= 62 LAYER=  1 ZONE=  2 ACTIVE CELLS= 1440 NUMBER OF EQUATIONS=    1440
 SOLVING FOR ZETA FOR LAYER     2 ZONE     2

     635 UPPER PART EQS.       635 LOWER PART EQS.    BAND WIDTH + 1 =   32
 STRESS PERIOD=  3 TIMESTEP= 62 LAYER=  2 ZONE=  2 ACTIVE CELLS= 1270 NUMBER OF EQUATIONS=    1270

 SOLVING FOR HEAD 

 NO OUTPUT CONTROL FOR STRESS PERIOD    3   TIME STEP   63
 SOLVING FOR ZETA FOR LAYER     1 ZONE     2

     713 UPPER PART EQS.       726 LOWER PART EQS.    BAND WIDTH + 1 =   33
 STRESS PERIOD=  3 TIMESTEP= 63 LAYER=  1 ZONE=  2 ACTIVE CELLS= 1439 NUMBER OF EQUATIONS=    1439
 SOLVING FOR ZETA FOR LAYER     2 ZONE     2

     635 UPPER PART EQS.       636 LOWER PART EQS.    BAND WIDTH + 1 =   31
 STRESS PERIOD=  3 TIMESTEP= 63 LAYER=  2 ZONE=  2 ACTIVE CELLS= 1271 NUMBER OF EQUATIONS=    1271

 SOLVING FOR HEAD 

 NO OUTPUT CONTROL FOR STRESS PERIOD    3   TIME STEP   64
 SOLVING FOR ZETA FOR LAYER     1 ZONE     2

     709 UPPER PART EQS.       736 LOWER PART EQS.    BAND WIDTH + 1 =   47
 STRESS PERIOD=  3 TIMESTEP= 64 LAYER=  1 ZONE=  2 ACTIVE CELLS= 1445 NUMBER OF EQUATIONS=    1445
 SOLVING FOR ZETA FOR LAYER     2 ZONE     2

     635 UPPER PART EQS.       635 LOWER PART EQS.    BAND WIDTH + 1 =   32
 STRESS PERIOD=  3 TIMESTEP= 64 LAYER=  2 ZONE=  2 ACTIVE CELLS= 1270 NUMBER OF EQUATIONS=    1270

 SOLVING FOR HEAD 

 NO OUTPUT CONTROL FOR STRESS PERIOD    3   TIME STEP   65
 SOLVING FOR ZETA FOR LAYER     1 ZONE     2

     725 UPPER PART EQS.       726 LOWER PART EQS.    BAND WIDTH + 1 =   31
 STRESS PERIOD=  3 TIMESTEP= 65 LAYER=  1 ZONE=  2 ACTIVE CELLS= 1451 NUMBER OF EQUATIONS=    1451
 SOLVING FOR ZETA FOR LAYER     2 ZONE     2

     635 UPPER PART EQS.       636 LOWER PART EQS.    BAND WIDTH + 1 =   31
 STRESS PERIOD=  3 TIMESTEP= 65 LAYER=  2 ZONE=  2 ACTIVE CELLS= 1271 NUMBER OF EQUATIONS=    1271

 SOLVING FOR HEAD 

 NO OUTPUT CONTROL FOR STRESS PERIOD    3   TIME STEP   66
 SOLVING FOR ZETA FOR LAYER     1 ZONE     2

     717 UPPER PART EQS.       728 LOWER PART EQS.    BAND WIDTH + 1 =   31
 STRESS PERIOD=  3 TIMESTEP= 66 LAYER=  1 ZONE=  2 ACTIVE CELLS= 1445 NUMBER OF EQUATIONS=    1445
 SOLVING FOR ZETA FOR LAYER     2 ZONE     2

     635 UPPER PART EQS.       635 LOWER PART EQS.    BAND WIDTH + 1 =   32
 STRESS PERIOD=  3 TIMESTEP= 66 LAYER=  2 ZONE=  2 ACTIVE CELLS= 1270 NUMBER OF EQUATIONS=    1270

 SOLVING FOR HEAD 

 NO OUTPUT CONTROL FOR STRESS PERIOD    3   TIME STEP   67
 SOLVING FOR ZETA FOR LAYER     1 ZONE     2

     714 UPPER PART EQS.       730 LOWER PART EQS.    BAND WIDTH + 1 =   36
 STRESS PERIOD=  3 TIMESTEP= 67 LAYER=  1 ZONE=  2 ACTIVE CELLS= 1444 NUMBER OF EQUATIONS=    1444
 SOLVING FOR ZETA FOR LAYER     2 ZONE     2

     635 UPPER PART EQS.       636 LOWER PART EQS.    BAND WIDTH + 1 =   31
 STRESS PERIOD=  3 TIMESTEP= 67 LAYER=  2 ZONE=  2 ACTIVE CELLS= 1271 NUMBER OF EQUATIONS=    1271

 SOLVING FOR HEAD 

 NO OUTPUT CONTROL FOR STRESS PERIOD    3   TIME STEP   68
 SOLVING FOR ZETA FOR LAYER     1 ZONE     2

     711 UPPER PART EQS.       732 LOWER PART EQS.    BAND WIDTH + 1 =   41
 STRESS PERIOD=  3 TIMESTEP= 68 LAYER=  1 ZONE=  2 ACTIVE CELLS= 1443 NUMBER OF EQUATIONS=    1443
 SOLVING FOR ZETA FOR LAYER     2 ZONE     2

     635 UPPER PART EQS.       635 LOWER PART EQS.    BAND WIDTH + 1 =   32
 STRESS PERIOD=  3 TIMESTEP= 68 LAYER=  2 ZONE=  2 ACTIVE CELLS= 1270 NUMBER OF EQUATIONS=    1270

 SOLVING FOR HEAD 

 NO OUTPUT CONTROL FOR STRESS PERIOD    3   TIME STEP   69
 SOLVING FOR ZETA FOR LAYER     1 ZONE     2

     719 UPPER PART EQS.       724 LOWER PART EQS.    BAND WIDTH + 1 =   30
 STRESS PERIOD=  3 TIMESTEP= 69 LAYER=  1 ZONE=  2 ACTIVE CELLS= 1443 NUMBER OF EQUATIONS=    1443
 SOLVING FOR ZETA FOR LAYER     2 ZONE     2

     635 UPPER PART EQS.       636 LOWER PART EQS.    BAND WIDTH + 1 =   31
 STRESS PERIOD=  3 TIMESTEP= 69 LAYER=  2 ZONE=  2 ACTIVE CELLS= 1271 NUMBER OF EQUATIONS=    1271

 SOLVING FOR HEAD 

 NO OUTPUT CONTROL FOR STRESS PERIOD    3   TIME STEP   70
 SOLVING FOR ZETA FOR LAYER     1 ZONE     2

     719 UPPER PART EQS.       726 LOWER PART EQS.    BAND WIDTH + 1 =   28
 STRESS PERIOD=  3 TIMESTEP= 70 LAYER=  1 ZONE=  2 ACTIVE CELLS= 1445 NUMBER OF EQUATIONS=    1445
 SOLVING FOR ZETA FOR LAYER     2 ZONE     2

     635 UPPER PART EQS.       635 LOWER PART EQS.    BAND WIDTH + 1 =   32
 STRESS PERIOD=  3 TIMESTEP= 70 LAYER=  2 ZONE=  2 ACTIVE CELLS= 1270 NUMBER OF EQUATIONS=    1270

 SOLVING FOR HEAD 

 NO OUTPUT CONTROL FOR STRESS PERIOD    3   TIME STEP   71
 SOLVING FOR ZETA FOR LAYER     1 ZONE     2

     717 UPPER PART EQS.       732 LOWER PART EQS.    BAND WIDTH + 1 =   35
 STRESS PERIOD=  3 TIMESTEP= 71 LAYER=  1 ZONE=  2 ACTIVE CELLS= 1449 NUMBER OF EQUATIONS=    1449
 SOLVING FOR ZETA FOR LAYER     2 ZONE     2

     635 UPPER PART EQS.       636 LOWER PART EQS.    BAND WIDTH + 1 =   31
 STRESS PERIOD=  3 TIMESTEP= 71 LAYER=  2 ZONE=  2 ACTIVE CELLS= 1271 NUMBER OF EQUATIONS=    1271

 SOLVING FOR HEAD 

 NO OUTPUT CONTROL FOR STRESS PERIOD    3   TIME STEP   72
 SOLVING FOR ZETA FOR LAYER     1 ZONE     2

     708 UPPER PART EQS.       730 LOWER PART EQS.    BAND WIDTH + 1 =   42
 STRESS PERIOD=  3 TIMESTEP= 72 LAYER=  1 ZONE=  2 ACTIVE CELLS= 1438 NUMBER OF EQUATIONS=    1438
 SOLVING FOR ZETA FOR LAYER     2 ZONE     2

     635 UPPER PART EQS.       635 LOWER PART EQS.    BAND WIDTH + 1 =   32
 STRESS PERIOD=  3 TIMESTEP= 72 LAYER=  2 ZONE=  2 ACTIVE CELLS= 1270 NUMBER OF EQUATIONS=    1270

 SOLVING FOR HEAD 

 NO OUTPUT CONTROL FOR STRESS PERIOD    3   TIME STEP   73
 SOLVING FOR ZETA FOR LAYER     1 ZONE     2

     725 UPPER PART EQS.       726 LOWER PART EQS.    BAND WIDTH + 1 =   30
 STRESS PERIOD=  3 TIMESTEP= 73 LAYER=  1 ZONE=  2 ACTIVE CELLS= 1451 NUMBER OF EQUATIONS=    1451
 SOLVING FOR ZETA FOR LAYER     2 ZONE     2

     635 UPPER PART EQS.       636 LOWER PART EQS.    BAND WIDTH + 1 =   31
 STRESS PERIOD=  3 TIMESTEP= 73 LAYER=  2 ZONE=  2 ACTIVE CELLS= 1271 NUMBER OF EQUATIONS=    1271

 SOLVING FOR HEAD 

 NO OUTPUT CONTROL FOR STRESS PERIOD    3   TIME STEP   74
 SOLVING FOR ZETA FOR LAYER     1 ZONE     2

     717 UPPER PART EQS.       732 LOWER PART EQS.    BAND WIDTH + 1 =   35
 STRESS PERIOD=  3 TIMESTEP= 74 LAYER=  1 ZONE=  2 ACTIVE CELLS= 1449 NUMBER OF EQUATIONS=    1449
 SOLVING FOR ZETA FOR LAYER     2 ZONE     2

     635 UPPER PART EQS.       635 LOWER PART EQS.    BAND WIDTH + 1 =   32
 STRESS PERIOD=  3 TIMESTEP= 74 LAYER=  2 ZONE=  2 ACTIVE CELLS= 1270 NUMBER OF EQUATIONS=    1270

 SOLVING FOR HEAD 

 NO OUTPUT CONTROL FOR STRESS PERIOD    3   TIME STEP   75
 SOLVING FOR ZETA FOR LAYER     1 ZONE     2

     713 UPPER PART EQS.       724 LOWER PART EQS.    BAND WIDTH + 1 =   31
 STRESS PERIOD=  3 TIMESTEP= 75 LAYER=  1 ZONE=  2 ACTIVE CELLS= 1437 NUMBER OF EQUATIONS=    1437
 SOLVING FOR ZETA FOR LAYER     2 ZONE     2

     635 UPPER PART EQS.       636 LOWER PART EQS.    BAND WIDTH + 1 =   31
 STRESS PERIOD=  3 TIMESTEP= 75 LAYER=  2 ZONE=  2 ACTIVE CELLS= 1271 NUMBER OF EQUATIONS=    1271

 SOLVING FOR HEAD 

 NO OUTPUT CONTROL FOR STRESS PERIOD    3   TIME STEP   76
 SOLVING FOR ZETA FOR LAYER     1 ZONE     2

     713 UPPER PART EQS.       736 LOWER PART EQS.    BAND WIDTH + 1 =   43
 STRESS PERIOD=  3 TIMESTEP= 76 LAYER=  1 ZONE=  2 ACTIVE CELLS= 1449 NUMBER OF EQUATIONS=    1449
 SOLVING FOR ZETA FOR LAYER     2 ZONE     2

     635 UPPER PART EQS.       635 LOWER PART EQS.    BAND WIDTH + 1 =   32
 STRESS PERIOD=  3 TIMESTEP= 76 LAYER=  2 ZONE=  2 ACTIVE CELLS= 1270 NUMBER OF EQUATIONS=    1270

 SOLVING FOR HEAD 

 NO OUTPUT CONTROL FOR STRESS PERIOD    3   TIME STEP   77
 SOLVING FOR ZETA FOR LAYER     1 ZONE     2

     723 UPPER PART EQS.       724 LOWER PART EQS.    BAND WIDTH + 1 =   32
 STRESS PERIOD=  3 TIMESTEP= 77 LAYER=  1 ZONE=  2 ACTIVE CELLS= 1447 NUMBER OF EQUATIONS=    1447
 SOLVING FOR ZETA FOR LAYER     2 ZONE     2

     635 UPPER PART EQS.       636 LOWER PART EQS.    BAND WIDTH + 1 =   31
 STRESS PERIOD=  3 TIMESTEP= 77 LAYER=  2 ZONE=  2 ACTIVE CELLS= 1271 NUMBER OF EQUATIONS=    1271

 SOLVING FOR HEAD 

 NO OUTPUT CONTROL FOR STRESS PERIOD    3   TIME STEP   78
 SOLVING FOR ZETA FOR LAYER     1 ZONE     2

     718 UPPER PART EQS.       728 LOWER PART EQS.    BAND WIDTH + 1 =   31
 STRESS PERIOD=  3 TIMESTEP= 78 LAYER=  1 ZONE=  2 ACTIVE CELLS= 1446 NUMBER OF EQUATIONS=    1446
 SOLVING FOR ZETA FOR LAYER     2 ZONE     2

     635 UPPER PART EQS.       635 LOWER PART EQS.    BAND WIDTH + 1 =   32
 STRESS PERIOD=  3 TIMESTEP= 78 LAYER=  2 ZONE=  2 ACTIVE CELLS= 1270 NUMBER OF EQUATIONS=    1270

 SOLVING FOR HEAD 

 NO OUTPUT CONTROL FOR STRESS PERIOD    3   TIME STEP   79
 SOLVING FOR ZETA FOR LAYER     1 ZONE     2

     715 UPPER PART EQS.       732 LOWER PART EQS.    BAND WIDTH + 1 =   37
 STRESS PERIOD=  3 TIMESTEP= 79 LAYER=  1 ZONE=  2 ACTIVE CELLS= 1447 NUMBER OF EQUATIONS=    1447
 SOLVING FOR ZETA FOR LAYER     2 ZONE     2

     635 UPPER PART EQS.       636 LOWER PART EQS.    BAND WIDTH + 1 =   31
 STRESS PERIOD=  3 TIMESTEP= 79 LAYER=  2 ZONE=  2 ACTIVE CELLS= 1271 NUMBER OF EQUATIONS=    1271

 SOLVING FOR HEAD 

 NO OUTPUT CONTROL FOR STRESS PERIOD    3   TIME STEP   80
 SOLVING FOR ZETA FOR LAYER     1 ZONE     2

     713 UPPER PART EQS.       730 LOWER PART EQS.    BAND WIDTH + 1 =   37
 STRESS PERIOD=  3 TIMESTEP= 80 LAYER=  1 ZONE=  2 ACTIVE CELLS= 1443 NUMBER OF EQUATIONS=    1443
 SOLVING FOR ZETA FOR LAYER     2 ZONE     2

     635 UPPER PART EQS.       635 LOWER PART EQS.    BAND WIDTH + 1 =   32
 STRESS PERIOD=  3 TIMESTEP= 80 LAYER=  2 ZONE=  2 ACTIVE CELLS= 1270 NUMBER OF EQUATIONS=    1270

 SOLVING FOR HEAD 

 NO OUTPUT CONTROL FOR STRESS PERIOD    3   TIME STEP   81
 SOLVING FOR ZETA FOR LAYER     1 ZONE     2

     721 UPPER PART EQS.       728 LOWER PART EQS.    BAND WIDTH + 1 =   29
 STRESS PERIOD=  3 TIMESTEP= 81 LAYER=  1 ZONE=  2 ACTIVE CELLS= 1449 NUMBER OF EQUATIONS=    1449
 SOLVING FOR ZETA FOR LAYER     2 ZONE     2

     635 UPPER PART EQS.       636 LOWER PART EQS.    BAND WIDTH + 1 =   31
 STRESS PERIOD=  3 TIMESTEP= 81 LAYER=  2 ZONE=  2 ACTIVE CELLS= 1271 NUMBER OF EQUATIONS=    1271

 SOLVING FOR HEAD 

 NO OUTPUT CONTROL FOR STRESS PERIOD    3   TIME STEP   82
 SOLVING FOR ZETA FOR LAYER     1 ZONE     2

     717 UPPER PART EQS.       728 LOWER PART EQS.    BAND WIDTH + 1 =   32
 STRESS PERIOD=  3 TIMESTEP= 82 LAYER=  1 ZONE=  2 ACTIVE CELLS= 1445 NUMBER OF EQUATIONS=    1445
 SOLVING FOR ZETA FOR LAYER     2 ZONE     2

     635 UPPER PART EQS.       635 LOWER PART EQS.    BAND WIDTH + 1 =   32
 STRESS PERIOD=  3 TIMESTEP= 82 LAYER=  2 ZONE=  2 ACTIVE CELLS= 1270 NUMBER OF EQUATIONS=    1270

 SOLVING FOR HEAD 

 NO OUTPUT CONTROL FOR STRESS PERIOD    3   TIME STEP   83
 SOLVING FOR ZETA FOR LAYER     1 ZONE     2

     715 UPPER PART EQS.       726 LOWER PART EQS.    BAND WIDTH + 1 =   32
 STRESS PERIOD=  3 TIMESTEP= 83 LAYER=  1 ZONE=  2 ACTIVE CELLS= 1441 NUMBER OF EQUATIONS=    1441
 SOLVING FOR ZETA FOR LAYER     2 ZONE     2

     635 UPPER PART EQS.       636 LOWER PART EQS.    BAND WIDTH + 1 =   31
 STRESS PERIOD=  3 TIMESTEP= 83 LAYER=  2 ZONE=  2 ACTIVE CELLS= 1271 NUMBER OF EQUATIONS=    1271

 SOLVING FOR HEAD 

 NO OUTPUT CONTROL FOR STRESS PERIOD    3   TIME STEP   84
 SOLVING FOR ZETA FOR LAYER     1 ZONE     2

     710 UPPER PART EQS.       732 LOWER PART EQS.    BAND WIDTH + 1 =   42
 STRESS PERIOD=  3 TIMESTEP= 84 LAYER=  1 ZONE=  2 ACTIVE CELLS= 1442 NUMBER OF EQUATIONS=    1442
 SOLVING FOR ZETA FOR LAYER     2 ZONE     2

     635 UPPER PART EQS.       635 LOWER PART EQS.    BAND WIDTH + 1 =   32
 STRESS PERIOD=  3 TIMESTEP= 84 LAYER=  2 ZONE=  2 ACTIVE CELLS= 1270 NUMBER OF EQUATIONS=    1270

 SOLVING FOR HEAD 

 NO OUTPUT CONTROL FOR STRESS PERIOD    3   TIME STEP   85
 SOLVING FOR ZETA FOR LAYER     1 ZONE     2

     725 UPPER PART EQS.       726 LOWER PART EQS.    BAND WIDTH + 1 =   31
 STRESS PERIOD=  3 TIMESTEP= 85 LAYER=  1 ZONE=  2 ACTIVE CELLS= 1451 NUMBER OF EQUATIONS=    1451
 SOLVING FOR ZETA FOR LAYER     2 ZONE     2

     635 UPPER PART EQS.       636 LOWER PART EQS.    BAND WIDTH + 1 =   31
 STRESS PERIOD=  3 TIMESTEP= 85 LAYER=  2 ZONE=  2 ACTIVE CELLS= 1271 NUMBER OF EQUATIONS=    1271

 SOLVING FOR HEAD 

 NO OUTPUT CONTROL FOR STRESS PERIOD    3   TIME STEP   86
 SOLVING FOR ZETA FOR LAYER     1 ZONE     2

     721 UPPER PART EQS.       736 LOWER PART EQS.    BAND WIDTH + 1 =   35
 STRESS PERIOD=  3 TIMESTEP= 86 LAYER=  1 ZONE=  2 ACTIVE CELLS= 1457 NUMBER OF EQUATIONS=    1457
 SOLVING FOR ZETA FOR LAYER     2 ZONE     2

     635 UPPER PART EQS.       635 LOWER PART EQS.    BAND WIDTH + 1 =   32
 STRESS PERIOD=  3 TIMESTEP= 86 LAYER=  2 ZONE=  2 ACTIVE CELLS= 1270 NUMBER OF EQUATIONS=    1270

 SOLVING FOR HEAD 

 NO OUTPUT CONTROL FOR STRESS PERIOD    3   TIME STEP   87
 SOLVING FOR ZETA FOR LAYER     1 ZONE     2

     713 UPPER PART EQS.       728 LOWER PART EQS.    BAND WIDTH + 1 =   35
 STRESS PERIOD=  3 TIMESTEP= 87 LAYER=  1 ZONE=  2 ACTIVE CELLS= 1441 NUMBER OF EQUATIONS=    1441
 SOLVING FOR ZETA FOR LAYER     2 ZONE     2

     635 UPPER PART EQS.       636 LOWER PART EQS.    BAND WIDTH + 1 =   31
 STRESS PERIOD=  3 TIMESTEP= 87 LAYER=  2 ZONE=  2 ACTIVE CELLS= 1271 NUMBER OF EQUATIONS=    1271

 SOLVING FOR HEAD 

 NO OUTPUT CONTROL FOR STRESS PERIOD    3   TIME STEP   88
 SOLVING FOR ZETA FOR LAYER     1 ZONE     2

     711 UPPER PART EQS.       736 LOWER PART EQS.    BAND WIDTH + 1 =   45
 STRESS PERIOD=  3 TIMESTEP= 88 LAYER=  1 ZONE=  2 ACTIVE CELLS= 1447 NUMBER OF EQUATIONS=    1447
 SOLVING FOR ZETA FOR LAYER     2 ZONE     2

     635 UPPER PART EQS.       635 LOWER PART EQS.    BAND WIDTH + 1 =   32
 STRESS PERIOD=  3 TIMESTEP= 88 LAYER=  2 ZONE=  2 ACTIVE CELLS= 1270 NUMBER OF EQUATIONS=    1270

 SOLVING FOR HEAD 

 NO OUTPUT CONTROL FOR STRESS PERIOD    3   TIME STEP   89
 SOLVING FOR ZETA FOR LAYER     1 ZONE     2

     725 UPPER PART EQS.       730 LOWER PART EQS.    BAND WIDTH + 1 =   29
 STRESS PERIOD=  3 TIMESTEP= 89 LAYER=  1 ZONE=  2 ACTIVE CELLS= 1455 NUMBER OF EQUATIONS=    1455
 SOLVING FOR ZETA FOR LAYER     2 ZONE     2

     635 UPPER PART EQS.       636 LOWER PART EQS.    BAND WIDTH + 1 =   31
 STRESS PERIOD=  3 TIMESTEP= 89 LAYER=  2 ZONE=  2 ACTIVE CELLS= 1271 NUMBER OF EQUATIONS=    1271

 SOLVING FOR HEAD 

 NO OUTPUT CONTROL FOR STRESS PERIOD    3   TIME STEP   90
 SOLVING FOR ZETA FOR LAYER     1 ZONE     2

     721 UPPER PART EQS.       722 LOWER PART EQS.    BAND WIDTH + 1 =   31
 STRESS PERIOD=  3 TIMESTEP= 90 LAYER=  1 ZONE=  2 ACTIVE CELLS= 1443 NUMBER OF EQUATIONS=    1443
 SOLVING FOR ZETA FOR LAYER     2 ZONE     2

     635 UPPER PART EQS.       635 LOWER PART EQS.    BAND WIDTH + 1 =   32
 STRESS PERIOD=  3 TIMESTEP= 90 LAYER=  2 ZONE=  2 ACTIVE CELLS= 1270 NUMBER OF EQUATIONS=    1270

 SOLVING FOR HEAD 

 NO OUTPUT CONTROL FOR STRESS PERIOD    3   TIME STEP   91
 SOLVING FOR ZETA FOR LAYER     1 ZONE     2

     716 UPPER PART EQS.       734 LOWER PART EQS.    BAND WIDTH + 1 =   38
 STRESS PERIOD=  3 TIMESTEP= 91 LAYER=  1 ZONE=  2 ACTIVE CELLS= 1450 NUMBER OF EQUATIONS=    1450
 SOLVING FOR ZETA FOR LAYER     2 ZONE     2

     635 UPPER PART EQS.       636 LOWER PART EQS.    BAND WIDTH + 1 =   31
 STRESS PERIOD=  3 TIMESTEP= 91 LAYER=  2 ZONE=  2 ACTIVE CELLS= 1271 NUMBER OF EQUATIONS=    1271

 SOLVING FOR HEAD 

 NO OUTPUT CONTROL FOR STRESS PERIOD    3   TIME STEP   92
 SOLVING FOR ZETA FOR LAYER     1 ZONE     2

     715 UPPER PART EQS.       736 LOWER PART EQS.    BAND WIDTH + 1 =   41
 STRESS PERIOD=  3 TIMESTEP= 92 LAYER=  1 ZONE=  2 ACTIVE CELLS= 1451 NUMBER OF EQUATIONS=    1451
 SOLVING FOR ZETA FOR LAYER     2 ZONE     2

     635 UPPER PART EQS.       634 LOWER PART EQS.    BAND WIDTH + 1 =   32
 STRESS PERIOD=  3 TIMESTEP= 92 LAYER=  2 ZONE=  2 ACTIVE CELLS= 1269 NUMBER OF EQUATIONS=    1269

 SOLVING FOR HEAD 

 NO OUTPUT CONTROL FOR STRESS PERIOD    3   TIME STEP   93
 SOLVING FOR ZETA FOR LAYER     1 ZONE     2

     725 UPPER PART EQS.       728 LOWER PART EQS.    BAND WIDTH + 1 =   29
 STRESS PERIOD=  3 TIMESTEP= 93 LAYER=  1 ZONE=  2 ACTIVE CELLS= 1453 NUMBER OF EQUATIONS=    1453
 SOLVING FOR ZETA FOR LAYER     2 ZONE     2

     635 UPPER PART EQS.       634 LOWER PART EQS.    BAND WIDTH + 1 =   31
 STRESS PERIOD=  3 TIMESTEP= 93 LAYER=  2 ZONE=  2 ACTIVE CELLS= 1269 NUMBER OF EQUATIONS=    1269

 SOLVING FOR HEAD 

 NO OUTPUT CONTROL FOR STRESS PERIOD    3   TIME STEP   94
 SOLVING FOR ZETA FOR LAYER     1 ZONE     2

     719 UPPER PART EQS.       734 LOWER PART EQS.    BAND WIDTH + 1 =   35
 STRESS PERIOD=  3 TIMESTEP= 94 LAYER=  1 ZONE=  2 ACTIVE CELLS= 1453 NUMBER OF EQUATIONS=    1453
 SOLVING FOR ZETA FOR LAYER     2 ZONE     2

     635 UPPER PART EQS.       633 LOWER PART EQS.    BAND WIDTH + 1 =   32
 STRESS PERIOD=  3 TIMESTEP= 94 LAYER=  2 ZONE=  2 ACTIVE CELLS= 1268 NUMBER OF EQUATIONS=    1268

 SOLVING FOR HEAD 

 NO OUTPUT CONTROL FOR STRESS PERIOD    3   TIME STEP   95
 SOLVING FOR ZETA FOR LAYER     1 ZONE     2

     715 UPPER PART EQS.       728 LOWER PART EQS.    BAND WIDTH + 1 =   33
 STRESS PERIOD=  3 TIMESTEP= 95 LAYER=  1 ZONE=  2 ACTIVE CELLS= 1443 NUMBER OF EQUATIONS=    1443
 SOLVING FOR ZETA FOR LAYER     2 ZONE     2

     635 UPPER PART EQS.       634 LOWER PART EQS.    BAND WIDTH + 1 =   31
 STRESS PERIOD=  3 TIMESTEP= 95 LAYER=  2 ZONE=  2 ACTIVE CELLS= 1269 NUMBER OF EQUATIONS=    1269

 SOLVING FOR HEAD 

 NO OUTPUT CONTROL FOR STRESS PERIOD    3   TIME STEP   96
 SOLVING FOR ZETA FOR LAYER     1 ZONE     2

     715 UPPER PART EQS.       734 LOWER PART EQS.    BAND WIDTH + 1 =   39
 STRESS PERIOD=  3 TIMESTEP= 96 LAYER=  1 ZONE=  2 ACTIVE CELLS= 1449 NUMBER OF EQUATIONS=    1449
 SOLVING FOR ZETA FOR LAYER     2 ZONE     2

     635 UPPER PART EQS.       633 LOWER PART EQS.    BAND WIDTH + 1 =   32
 STRESS PERIOD=  3 TIMESTEP= 96 LAYER=  2 ZONE=  2 ACTIVE CELLS= 1268 NUMBER OF EQUATIONS=    1268

 SOLVING FOR HEAD 

 NO OUTPUT CONTROL FOR STRESS PERIOD    3   TIME STEP   97
 SOLVING FOR ZETA FOR LAYER     1 ZONE     2

     723 UPPER PART EQS.       732 LOWER PART EQS.    BAND WIDTH + 1 =   29
 STRESS PERIOD=  3 TIMESTEP= 97 LAYER=  1 ZONE=  2 ACTIVE CELLS= 1455 NUMBER OF EQUATIONS=    1455
 SOLVING FOR ZETA FOR LAYER     2 ZONE     2

     635 UPPER PART EQS.       634 LOWER PART EQS.    BAND WIDTH + 1 =   31
 STRESS PERIOD=  3 TIMESTEP= 97 LAYER=  2 ZONE=  2 ACTIVE CELLS= 1269 NUMBER OF EQUATIONS=    1269

 SOLVING FOR HEAD 

 NO OUTPUT CONTROL FOR STRESS PERIOD    3   TIME STEP   98
 SOLVING FOR ZETA FOR LAYER     1 ZONE     2

     723 UPPER PART EQS.       728 LOWER PART EQS.    BAND WIDTH + 1 =   30
 STRESS PERIOD=  3 TIMESTEP= 98 LAYER=  1 ZONE=  2 ACTIVE CELLS= 1451 NUMBER OF EQUATIONS=    1451
 SOLVING FOR ZETA FOR LAYER     2 ZONE     2

     635 UPPER PART EQS.       633 LOWER PART EQS.    BAND WIDTH + 1 =   32
 STRESS PERIOD=  3 TIMESTEP= 98 LAYER=  2 ZONE=  2 ACTIVE CELLS= 1268 NUMBER OF EQUATIONS=    1268

 SOLVING FOR HEAD 

 NO OUTPUT CONTROL FOR STRESS PERIOD    3   TIME STEP   99
 SOLVING FOR ZETA FOR LAYER     1 ZONE     2

     716 UPPER PART EQS.       732 LOWER PART EQS.    BAND WIDTH + 1 =   36
 STRESS PERIOD=  3 TIMESTEP= 99 LAYER=  1 ZONE=  2 ACTIVE CELLS= 1448 NUMBER OF EQUATIONS=    1448
 SOLVING FOR ZETA FOR LAYER     2 ZONE     2

     635 UPPER PART EQS.       634 LOWER PART EQS.    BAND WIDTH + 1 =   31
 STRESS PERIOD=  3 TIMESTEP= 99 LAYER=  2 ZONE=  2 ACTIVE CELLS= 1269 NUMBER OF EQUATIONS=    1269

 SOLVING FOR HEAD 

 NO OUTPUT CONTROL FOR STRESS PERIOD    3   TIME STEP  100
 SOLVING FOR ZETA FOR LAYER     1 ZONE     2

     717 UPPER PART EQS.       730 LOWER PART EQS.    BAND WIDTH + 1 =   33
 STRESS PERIOD=  3 TIMESTEP=100 LAYER=  1 ZONE=  2 ACTIVE CELLS= 1447 NUMBER OF EQUATIONS=    1447
 SOLVING FOR ZETA FOR LAYER     2 ZONE     2

     635 UPPER PART EQS.       633 LOWER PART EQS.    BAND WIDTH + 1 =   32
 STRESS PERIOD=  3 TIMESTEP=100 LAYER=  2 ZONE=  2 ACTIVE CELLS= 1268 NUMBER OF EQUATIONS=    1268

 SOLVING FOR HEAD 

 NO OUTPUT CONTROL FOR STRESS PERIOD    3   TIME STEP  101
 SOLVING FOR ZETA FOR LAYER     1 ZONE     2

     725 UPPER PART EQS.       732 LOWER PART EQS.    BAND WIDTH + 1 =   27
 STRESS PERIOD=  3 TIMESTEP=101 LAYER=  1 ZONE=  2 ACTIVE CELLS= 1457 NUMBER OF EQUATIONS=    1457
 SOLVING FOR ZETA FOR LAYER     2 ZONE     2

     635 UPPER PART EQS.       634 LOWER PART EQS.    BAND WIDTH + 1 =   31
 STRESS PERIOD=  3 TIMESTEP=101 LAYER=  2 ZONE=  2 ACTIVE CELLS= 1269 NUMBER OF EQUATIONS=    1269

 SOLVING FOR HEAD 

 NO OUTPUT CONTROL FOR STRESS PERIOD    3   TIME STEP  102
 SOLVING FOR ZETA FOR LAYER     1 ZONE     2

     717 UPPER PART EQS.       730 LOWER PART EQS.    BAND WIDTH + 1 =   33
 STRESS PERIOD=  3 TIMESTEP=102 LAYER=  1 ZONE=  2 ACTIVE CELLS= 1447 NUMBER OF EQUATIONS=    1447
 SOLVING FOR ZETA FOR LAYER     2 ZONE     2

     635 UPPER PART EQS.       633 LOWER PART EQS.    BAND WIDTH + 1 =   32
 STRESS PERIOD=  3 TIMESTEP=102 LAYER=  2 ZONE=  2 ACTIVE CELLS= 1268 NUMBER OF EQUATIONS=    1268

 SOLVING FOR HEAD 

 NO OUTPUT CONTROL FOR STRESS PERIOD    3   TIME STEP  103
 SOLVING FOR ZETA FOR LAYER     1 ZONE     2

     719 UPPER PART EQS.       734 LOWER PART EQS.    BAND WIDTH + 1 =   35
 STRESS PERIOD=  3 TIMESTEP=103 LAYER=  1 ZONE=  2 ACTIVE CELLS= 1453 NUMBER OF EQUATIONS=    1453
 SOLVING FOR ZETA FOR LAYER     2 ZONE     2

     635 UPPER PART EQS.       634 LOWER PART EQS.    BAND WIDTH + 1 =   31
 STRESS PERIOD=  3 TIMESTEP=103 LAYER=  2 ZONE=  2 ACTIVE CELLS= 1269 NUMBER OF EQUATIONS=    1269

 SOLVING FOR HEAD 

 NO OUTPUT CONTROL FOR STRESS PERIOD    3   TIME STEP  104
 SOLVING FOR ZETA FOR LAYER     1 ZONE     2

     709 UPPER PART EQS.       736 LOWER PART EQS.    BAND WIDTH + 1 =   47
 STRESS PERIOD=  3 TIMESTEP=104 LAYER=  1 ZONE=  2 ACTIVE CELLS= 1445 NUMBER OF EQUATIONS=    1445
 SOLVING FOR ZETA FOR LAYER     2 ZONE     2

     635 UPPER PART EQS.       633 LOWER PART EQS.    BAND WIDTH + 1 =   32
 STRESS PERIOD=  3 TIMESTEP=104 LAYER=  2 ZONE=  2 ACTIVE CELLS= 1268 NUMBER OF EQUATIONS=    1268

 SOLVING FOR HEAD 

 NO OUTPUT CONTROL FOR STRESS PERIOD    3   TIME STEP  105
 SOLVING FOR ZETA FOR LAYER     1 ZONE     2

     727 UPPER PART EQS.       722 LOWER PART EQS.    BAND WIDTH + 1 =   36
 STRESS PERIOD=  3 TIMESTEP=105 LAYER=  1 ZONE=  2 ACTIVE CELLS= 1449 NUMBER OF EQUATIONS=    1449
 SOLVING FOR ZETA FOR LAYER     2 ZONE     2

     635 UPPER PART EQS.       634 LOWER PART EQS.    BAND WIDTH + 1 =   31
 STRESS PERIOD=  3 TIMESTEP=105 LAYER=  2 ZONE=  2 ACTIVE CELLS= 1269 NUMBER OF EQUATIONS=    1269

 SOLVING FOR HEAD 

 NO OUTPUT CONTROL FOR STRESS PERIOD    3   TIME STEP  106
 SOLVING FOR ZETA FOR LAYER     1 ZONE     2

     719 UPPER PART EQS.       736 LOWER PART EQS.    BAND WIDTH + 1 =   37
 STRESS PERIOD=  3 TIMESTEP=106 LAYER=  1 ZONE=  2 ACTIVE CELLS= 1455 NUMBER OF EQUATIONS=    1455
 SOLVING FOR ZETA FOR LAYER     2 ZONE     2

     635 UPPER PART EQS.       633 LOWER PART EQS.    BAND WIDTH + 1 =   32
 STRESS PERIOD=  3 TIMESTEP=106 LAYER=  2 ZONE=  2 ACTIVE CELLS= 1268 NUMBER OF EQUATIONS=    1268

 SOLVING FOR HEAD 

 NO OUTPUT CONTROL FOR STRESS PERIOD    3   TIME STEP  107
 SOLVING FOR ZETA FOR LAYER     1 ZONE     2

     719 UPPER PART EQS.       734 LOWER PART EQS.    BAND WIDTH + 1 =   35
 STRESS PERIOD=  3 TIMESTEP=107 LAYER=  1 ZONE=  2 ACTIVE CELLS= 1453 NUMBER OF EQUATIONS=    1453
 SOLVING FOR ZETA FOR LAYER     2 ZONE     2

     635 UPPER PART EQS.       634 LOWER PART EQS.    BAND WIDTH + 1 =   31
 STRESS PERIOD=  3 TIMESTEP=107 LAYER=  2 ZONE=  2 ACTIVE CELLS= 1269 NUMBER OF EQUATIONS=    1269

 SOLVING FOR HEAD 

 NO OUTPUT CONTROL FOR STRESS PERIOD    3   TIME STEP  108
 SOLVING FOR ZETA FOR LAYER     1 ZONE     2

     715 UPPER PART EQS.       728 LOWER PART EQS.    BAND WIDTH + 1 =   33
 STRESS PERIOD=  3 TIMESTEP=108 LAYER=  1 ZONE=  2 ACTIVE CELLS= 1443 NUMBER OF EQUATIONS=    1443
 SOLVING FOR ZETA FOR LAYER     2 ZONE     2

     635 UPPER PART EQS.       633 LOWER PART EQS.    BAND WIDTH + 1 =   32
 STRESS PERIOD=  3 TIMESTEP=108 LAYER=  2 ZONE=  2 ACTIVE CELLS= 1268 NUMBER OF EQUATIONS=    1268

 SOLVING FOR HEAD 

 NO OUTPUT CONTROL FOR STRESS PERIOD    3   TIME STEP  109
 SOLVING FOR ZETA FOR LAYER     1 ZONE     2

     722 UPPER PART EQS.       732 LOWER PART EQS.    BAND WIDTH + 1 =   30
 STRESS PERIOD=  3 TIMESTEP=109 LAYER=  1 ZONE=  2 ACTIVE CELLS= 1454 NUMBER OF EQUATIONS=    1454
 SOLVING FOR ZETA FOR LAYER     2 ZONE     2

     635 UPPER PART EQS.       634 LOWER PART EQS.    BAND WIDTH + 1 =   31
 STRESS PERIOD=  3 TIMESTEP=109 LAYER=  2 ZONE=  2 ACTIVE CELLS= 1269 NUMBER OF EQUATIONS=    1269

 SOLVING FOR HEAD 

 NO OUTPUT CONTROL FOR STRESS PERIOD    3   TIME STEP  110
 SOLVING FOR ZETA FOR LAYER     1 ZONE     2

     723 UPPER PART EQS.       730 LOWER PART EQS.    BAND WIDTH + 1 =   27
 STRESS PERIOD=  3 TIMESTEP=110 LAYER=  1 ZONE=  2 ACTIVE CELLS= 1453 NUMBER OF EQUATIONS=    1453
 SOLVING FOR ZETA FOR LAYER     2 ZONE     2

     635 UPPER PART EQS.       633 LOWER PART EQS.    BAND WIDTH + 1 =   32
 STRESS PERIOD=  3 TIMESTEP=110 LAYER=  2 ZONE=  2 ACTIVE CELLS= 1268 NUMBER OF EQUATIONS=    1268

 SOLVING FOR HEAD 

 NO OUTPUT CONTROL FOR STRESS PERIOD    3   TIME STEP  111
 SOLVING FOR ZETA FOR LAYER     1 ZONE     2

     719 UPPER PART EQS.       728 LOWER PART EQS.    BAND WIDTH + 1 =   29
 STRESS PERIOD=  3 TIMESTEP=111 LAYER=  1 ZONE=  2 ACTIVE CELLS= 1447 NUMBER OF EQUATIONS=    1447
 SOLVING FOR ZETA FOR LAYER     2 ZONE     2

     635 UPPER PART EQS.       634 LOWER PART EQS.    BAND WIDTH + 1 =   31
 STRESS PERIOD=  3 TIMESTEP=111 LAYER=  2 ZONE=  2 ACTIVE CELLS= 1269 NUMBER OF EQUATIONS=    1269

 SOLVING FOR HEAD 

 NO OUTPUT CONTROL FOR STRESS PERIOD    3   TIME STEP  112
 SOLVING FOR ZETA FOR LAYER     1 ZONE     2

     713 UPPER PART EQS.       734 LOWER PART EQS.    BAND WIDTH + 1 =   41
 STRESS PERIOD=  3 TIMESTEP=112 LAYER=  1 ZONE=  2 ACTIVE CELLS= 1447 NUMBER OF EQUATIONS=    1447
 SOLVING FOR ZETA FOR LAYER     2 ZONE     2

     635 UPPER PART EQS.       633 LOWER PART EQS.    BAND WIDTH + 1 =   32
 STRESS PERIOD=  3 TIMESTEP=112 LAYER=  2 ZONE=  2 ACTIVE CELLS= 1268 NUMBER OF EQUATIONS=    1268

 SOLVING FOR HEAD 

 NO OUTPUT CONTROL FOR STRESS PERIOD    3   TIME STEP  113
 SOLVING FOR ZETA FOR LAYER     1 ZONE     2

     731 UPPER PART EQS.       734 LOWER PART EQS.    BAND WIDTH + 1 =   29
 STRESS PERIOD=  3 TIMESTEP=113 LAYER=  1 ZONE=  2 ACTIVE CELLS= 1465 NUMBER OF EQUATIONS=    1465
 SOLVING FOR ZETA FOR LAYER     2 ZONE     2

     635 UPPER PART EQS.       634 LOWER PART EQS.    BAND WIDTH + 1 =   31
 STRESS PERIOD=  3 TIMESTEP=113 LAYER=  2 ZONE=  2 ACTIVE CELLS= 1269 NUMBER OF EQUATIONS=    1269

 SOLVING FOR HEAD 

 NO OUTPUT CONTROL FOR STRESS PERIOD    3   TIME STEP  114
 SOLVING FOR ZETA FOR LAYER     1 ZONE     2

     721 UPPER PART EQS.       732 LOWER PART EQS.    BAND WIDTH + 1 =   31
 STRESS PERIOD=  3 TIMESTEP=114 LAYER=  1 ZONE=  2 ACTIVE CELLS= 1453 NUMBER OF EQUATIONS=    1453
 SOLVING FOR ZETA FOR LAYER     2 ZONE     2

     635 UPPER PART EQS.       633 LOWER PART EQS.    BAND WIDTH + 1 =   32
 STRESS PERIOD=  3 TIMESTEP=114 LAYER=  2 ZONE=  2 ACTIVE CELLS= 1268 NUMBER OF EQUATIONS=    1268

 SOLVING FOR HEAD 

 NO OUTPUT CONTROL FOR STRESS PERIOD    3   TIME STEP  115
 SOLVING FOR ZETA FOR LAYER     1 ZONE     2

     721 UPPER PART EQS.       730 LOWER PART EQS.    BAND WIDTH + 1 =   29
 STRESS PERIOD=  3 TIMESTEP=115 LAYER=  1 ZONE=  2 ACTIVE CELLS= 1451 NUMBER OF EQUATIONS=    1451
 SOLVING FOR ZETA FOR LAYER     2 ZONE     2

     635 UPPER PART EQS.       634 LOWER PART EQS.    BAND WIDTH + 1 =   31
 STRESS PERIOD=  3 TIMESTEP=115 LAYER=  2 ZONE=  2 ACTIVE CELLS= 1269 NUMBER OF EQUATIONS=    1269

 SOLVING FOR HEAD 

 NO OUTPUT CONTROL FOR STRESS PERIOD    3   TIME STEP  116
 SOLVING FOR ZETA FOR LAYER     1 ZONE     2

     717 UPPER PART EQS.       734 LOWER PART EQS.    BAND WIDTH + 1 =   37
 STRESS PERIOD=  3 TIMESTEP=116 LAYER=  1 ZONE=  2 ACTIVE CELLS= 1451 NUMBER OF EQUATIONS=    1451
 SOLVING FOR ZETA FOR LAYER     2 ZONE     2

     635 UPPER PART EQS.       633 LOWER PART EQS.    BAND WIDTH + 1 =   32
 STRESS PERIOD=  3 TIMESTEP=116 LAYER=  2 ZONE=  2 ACTIVE CELLS= 1268 NUMBER OF EQUATIONS=    1268

 SOLVING FOR HEAD 

 NO OUTPUT CONTROL FOR STRESS PERIOD    3   TIME STEP  117
 SOLVING FOR ZETA FOR LAYER     1 ZONE     2

     725 UPPER PART EQS.       730 LOWER PART EQS.    BAND WIDTH + 1 =   29
 STRESS PERIOD=  3 TIMESTEP=117 LAYER=  1 ZONE=  2 ACTIVE CELLS= 1455 NUMBER OF EQUATIONS=    1455
 SOLVING FOR ZETA FOR LAYER     2 ZONE     2

     635 UPPER PART EQS.       634 LOWER PART EQS.    BAND WIDTH + 1 =   31
 STRESS PERIOD=  3 TIMESTEP=117 LAYER=  2 ZONE=  2 ACTIVE CELLS= 1269 NUMBER OF EQUATIONS=    1269

 SOLVING FOR HEAD 

 NO OUTPUT CONTROL FOR STRESS PERIOD    3   TIME STEP  118
 SOLVING FOR ZETA FOR LAYER     1 ZONE     2

     723 UPPER PART EQS.       732 LOWER PART EQS.    BAND WIDTH + 1 =   29
 STRESS PERIOD=  3 TIMESTEP=118 LAYER=  1 ZONE=  2 ACTIVE CELLS= 1455 NUMBER OF EQUATIONS=    1455
 SOLVING FOR ZETA FOR LAYER     2 ZONE     2

     635 UPPER PART EQS.       633 LOWER PART EQS.    BAND WIDTH + 1 =   32
 STRESS PERIOD=  3 TIMESTEP=118 LAYER=  2 ZONE=  2 ACTIVE CELLS= 1268 NUMBER OF EQUATIONS=    1268

 SOLVING FOR HEAD 

 NO OUTPUT CONTROL FOR STRESS PERIOD    3   TIME STEP  119
 SOLVING FOR ZETA FOR LAYER     1 ZONE     2

     717 UPPER PART EQS.       734 LOWER PART EQS.    BAND WIDTH + 1 =   37
 STRESS PERIOD=  3 TIMESTEP=119 LAYER=  1 ZONE=  2 ACTIVE CELLS= 1451 NUMBER OF EQUATIONS=    1451
 SOLVING FOR ZETA FOR LAYER     2 ZONE     2

     635 UPPER PART EQS.       634 LOWER PART EQS.    BAND WIDTH + 1 =   31
 STRESS PERIOD=  3 TIMESTEP=119 LAYER=  2 ZONE=  2 ACTIVE CELLS= 1269 NUMBER OF EQUATIONS=    1269

 SOLVING FOR HEAD 

 OUTPUT CONTROL FOR STRESS PERIOD    3   TIME STEP  120
    PRINT BUDGET
    SAVE HEAD FOR ALL LAYERS
 SOLVING FOR ZETA FOR LAYER     1 ZONE     2

     715 UPPER PART EQS.       726 LOWER PART EQS.    BAND WIDTH + 1 =   31
 STRESS PERIOD=  3 TIMESTEP=120 LAYER=  1 ZONE=  2 ACTIVE CELLS= 1441 NUMBER OF EQUATIONS=    1441
 SOLVING FOR ZETA FOR LAYER     2 ZONE     2

     635 UPPER PART EQS.       633 LOWER PART EQS.    BAND WIDTH + 1 =   32
 STRESS PERIOD=  3 TIMESTEP=120 LAYER=  2 ZONE=  2 ACTIVE CELLS= 1268 NUMBER OF EQUATIONS=    1268
 UBUDSV SAVING "      ZETASRF  1" ON UNIT 55 AT TIME STEP120, STRESS PERIOD    3


                      VOLUMETRIC SWI ZONE BUDGET FOR ENTIRE MODEL
                     AT END OF TIME STEP  120 IN STRESS PERIOD   3
                                      ZONE     1
  -----------------------------------------------------------------------------------

        CUMULATIVE VOLUMES      L**3       RATES FOR THIS TIME STEP      L**3/T
        ------------------                 ------------------------

              IN:                                      IN:
              ---                                      ---
             BOUNDARIES =   137524624.0000            BOUNDARIES =        1680.0000
          CONSTANT HEAD =           0.0000         CONSTANT HEAD =           0.0000
            ZONE CHANGE =     1521920.6250           ZONE CHANGE =          94.5919
       ZONE CHG TIP/TOE =      459385.7188      ZONE CHG TIP/TOE =           5.9352
            ZONE MIXING =           0.0000           ZONE MIXING =           0.0000

               TOTAL IN =   139505936.0000              TOTAL IN =        1780.5271

             OUT:                                     OUT:
             ----                                     ----
             BOUNDARIES =   120822168.0000            BOUNDARIES =        1771.7760
          CONSTANT HEAD =           0.0000         CONSTANT HEAD =           0.0000
            ZONE CHANGE =    18953772.0000           ZONE CHANGE =           2.7848
       ZONE CHG TIP/TOE =      470034.7812      ZONE CHG TIP/TOE =           5.7640
            ZONE MIXING =           0.0000           ZONE MIXING =           0.0000

              TOTAL OUT =   140245968.0000             TOTAL OUT =        1780.3248

               IN - OUT =     -740032.0000              IN - OUT =           0.2023

    PERCENT DISCREPANCY =          -0.53     PERCENT DISCREPANCY =           0.01



                      VOLUMETRIC SWI ZONE BUDGET FOR ENTIRE MODEL
                     AT END OF TIME STEP  120 IN STRESS PERIOD   3
                                      ZONE     2
  -----------------------------------------------------------------------------------

        CUMULATIVE VOLUMES      L**3       RATES FOR THIS TIME STEP      L**3/T
        ------------------                 ------------------------

              IN:                                      IN:
              ---                                      ---
             BOUNDARIES =      953507.3750            BOUNDARIES =          91.7760
          CONSTANT HEAD =           0.0000         CONSTANT HEAD =           0.0000
            ZONE CHANGE =    18888354.0000           ZONE CHANGE =           2.6827
       ZONE CHG TIP/TOE =     1211719.1250      ZONE CHG TIP/TOE =           5.7640
            ZONE MIXING =           0.0000           ZONE MIXING =           0.0000

               TOTAL IN =    21053582.0000              TOTAL IN =         100.2228

             OUT:                                     OUT:
             ----                                     ----
             BOUNDARIES =    17655286.0000            BOUNDARIES =           0.0000
          CONSTANT HEAD =           0.0000         CONSTANT HEAD =           0.0000
            ZONE CHANGE =     2263604.7500           ZONE CHANGE =          94.5919
       ZONE CHG TIP/TOE =      394006.8125      ZONE CHG TIP/TOE =           5.8331
            ZONE MIXING =           0.0000           ZONE MIXING =           0.0000

              TOTAL OUT =    20312896.0000             TOTAL OUT =         100.4250

               IN - OUT =      740686.0000              IN - OUT =          -0.2022

    PERCENT DISCREPANCY =           3.58     PERCENT DISCREPANCY =          -0.20


 HEAD WILL BE SAVED ON UNIT   51 AT END OF TIME STEP  120, STRESS PERIOD    3
1
  VOLUMETRIC BUDGET FOR ENTIRE MODEL AT END OF TIME STEP  120, STRESS PERIOD   3
  ------------------------------------------------------------------------------

     CUMULATIVE VOLUMES      L**3       RATES FOR THIS TIME STEP      L**3/T
     ------------------                 ------------------------

           IN:                                      IN:
           ---                                      ---
             STORAGE =           0.0000               STORAGE =           0.0000
       CONSTANT HEAD =           0.0000         CONSTANT HEAD =           0.0000
               WELLS =           0.0000                 WELLS =           0.0000
     HEAD DEP BOUNDS =      953507.3750       HEAD DEP BOUNDS =          91.7760
            RECHARGE =   137533792.0000              RECHARGE =        1681.0000
          SWIADDTOCH =           0.0000            SWIADDTOCH =           0.0000

            TOTAL IN =   138487296.0000              TOTAL IN =        1772.7760

          OUT:                                     OUT:
          ----                                     ----
             STORAGE =           0.0000               STORAGE =           0.0000
       CONSTANT HEAD =           0.0000         CONSTANT HEAD =           0.0000
               WELLS =     2191500.0000                 WELLS =         250.0000
     HEAD DEP BOUNDS =   136295872.0000       HEAD DEP BOUNDS =        1522.7760
            RECHARGE =           0.0000              RECHARGE =           0.0000
          SWIADDTOCH =           0.0000            SWIADDTOCH =           0.0000

           TOTAL OUT =   138487376.0000             TOTAL OUT =        1772.7760

            IN - OUT =         -80.0000              IN - OUT =           0.0000

 PERCENT DISCREPANCY =          -0.00     PERCENT DISCREPANCY =           0.00






         TIME SUMMARY AT END OF TIME STEP  120 IN STRESS PERIOD    3
                    SECONDS     MINUTES      HOURS       DAYS        YEARS
                    -----------------------------------------------------------
   TIME STEP LENGTH 3.15576E+06  52596.      876.60      36.525     0.10000    
 STRESS PERIOD TIME 3.78691E+08 6.31151E+06 1.05192E+05  4383.0      12.000    
         TOTAL TIME 7.06888E+09 1.17815E+08 1.96358E+06  81816.      224.00    
1

 SOLVING FOR HEAD 

 NO OUTPUT CONTROL FOR STRESS PERIOD    3   TIME STEP  121
 SOLVING FOR ZETA FOR LAYER     1 ZONE     2

     729 UPPER PART EQS.       736 LOWER PART EQS.    BAND WIDTH + 1 =   27
 STRESS PERIOD=  3 TIMESTEP=121 LAYER=  1 ZONE=  2 ACTIVE CELLS= 1465 NUMBER OF EQUATIONS=    1465
 SOLVING FOR ZETA FOR LAYER     2 ZONE     2

     635 UPPER PART EQS.       634 LOWER PART EQS.    BAND WIDTH + 1 =   31
 STRESS PERIOD=  3 TIMESTEP=121 LAYER=  2 ZONE=  2 ACTIVE CELLS= 1269 NUMBER OF EQUATIONS=    1269

 SOLVING FOR HEAD 

 NO OUTPUT CONTROL FOR STRESS PERIOD    3   TIME STEP  122
 SOLVING FOR ZETA FOR LAYER     1 ZONE     2

     721 UPPER PART EQS.       736 LOWER PART EQS.    BAND WIDTH + 1 =   35
 STRESS PERIOD=  3 TIMESTEP=122 LAYER=  1 ZONE=  2 ACTIVE CELLS= 1457 NUMBER OF EQUATIONS=    1457
 SOLVING FOR ZETA FOR LAYER     2 ZONE     2

     635 UPPER PART EQS.       633 LOWER PART EQS.    BAND WIDTH + 1 =   32
 STRESS PERIOD=  3 TIMESTEP=122 LAYER=  2 ZONE=  2 ACTIVE CELLS= 1268 NUMBER OF EQUATIONS=    1268

 SOLVING FOR HEAD 

 NO OUTPUT CONTROL FOR STRESS PERIOD    3   TIME STEP  123
 SOLVING FOR ZETA FOR LAYER     1 ZONE     2

     721 UPPER PART EQS.       728 LOWER PART EQS.    BAND WIDTH + 1 =   28
 STRESS PERIOD=  3 TIMESTEP=123 LAYER=  1 ZONE=  2 ACTIVE CELLS= 1449 NUMBER OF EQUATIONS=    1449
 SOLVING FOR ZETA FOR LAYER     2 ZONE     2

     635 UPPER PART EQS.       634 LOWER PART EQS.    BAND WIDTH + 1 =   31
 STRESS PERIOD=  3 TIMESTEP=123 LAYER=  2 ZONE=  2 ACTIVE CELLS= 1269 NUMBER OF EQUATIONS=    1269

 SOLVING FOR HEAD 

 NO OUTPUT CONTROL FOR STRESS PERIOD    3   TIME STEP  124
 SOLVING FOR ZETA FOR LAYER     1 ZONE     2

     717 UPPER PART EQS.       732 LOWER PART EQS.    BAND WIDTH + 1 =   36
 STRESS PERIOD=  3 TIMESTEP=124 LAYER=  1 ZONE=  2 ACTIVE CELLS= 1449 NUMBER OF EQUATIONS=    1449
 SOLVING FOR ZETA FOR LAYER     2 ZONE     2

     635 UPPER PART EQS.       633 LOWER PART EQS.    BAND WIDTH + 1 =   32
 STRESS PERIOD=  3 TIMESTEP=124 LAYER=  2 ZONE=  2 ACTIVE CELLS= 1268 NUMBER OF EQUATIONS=    1268

 SOLVING FOR HEAD 

 NO OUTPUT CONTROL FOR STRESS PERIOD    3   TIME STEP  125
 SOLVING FOR ZETA FOR LAYER     1 ZONE     2

     731 UPPER PART EQS.       730 LOWER PART EQS.    BAND WIDTH + 1 =   33
 STRESS PERIOD=  3 TIMESTEP=125 LAYER=  1 ZONE=  2 ACTIVE CELLS= 1461 NUMBER OF EQUATIONS=    1461
 SOLVING FOR ZETA FOR LAYER     2 ZONE     2

     635 UPPER PART EQS.       634 LOWER PART EQS.    BAND WIDTH + 1 =   31
 STRESS PERIOD=  3 TIMESTEP=125 LAYER=  2 ZONE=  2 ACTIVE CELLS= 1269 NUMBER OF EQUATIONS=    1269

 SOLVING FOR HEAD 

 NO OUTPUT CONTROL FOR STRESS PERIOD    3   TIME STEP  126
 SOLVING FOR ZETA FOR LAYER     1 ZONE     2

     719 UPPER PART EQS.       732 LOWER PART EQS.    BAND WIDTH + 1 =   33
 STRESS PERIOD=  3 TIMESTEP=126 LAYER=  1 ZONE=  2 ACTIVE CELLS= 1451 NUMBER OF EQUATIONS=    1451
 SOLVING FOR ZETA FOR LAYER     2 ZONE     2

     635 UPPER PART EQS.       633 LOWER PART EQS.    BAND WIDTH + 1 =   32
 STRESS PERIOD=  3 TIMESTEP=126 LAYER=  2 ZONE=  2 ACTIVE CELLS= 1268 NUMBER OF EQUATIONS=    1268

 SOLVING FOR HEAD 

 NO OUTPUT CONTROL FOR STRESS PERIOD    3   TIME STEP  127
 SOLVING FOR ZETA FOR LAYER     1 ZONE     2

     721 UPPER PART EQS.       738 LOWER PART EQS.    BAND WIDTH + 1 =   37
 STRESS PERIOD=  3 TIMESTEP=127 LAYER=  1 ZONE=  2 ACTIVE CELLS= 1459 NUMBER OF EQUATIONS=    1459
 SOLVING FOR ZETA FOR LAYER     2 ZONE     2

     635 UPPER PART EQS.       634 LOWER PART EQS.    BAND WIDTH + 1 =   31
 STRESS PERIOD=  3 TIMESTEP=127 LAYER=  2 ZONE=  2 ACTIVE CELLS= 1269 NUMBER OF EQUATIONS=    1269

 SOLVING FOR HEAD 

 NO OUTPUT CONTROL FOR STRESS PERIOD    3   TIME STEP  128
 SOLVING FOR ZETA FOR LAYER     1 ZONE     2

     719 UPPER PART EQS.       736 LOWER PART EQS.    BAND WIDTH + 1 =   37
 STRESS PERIOD=  3 TIMESTEP=128 LAYER=  1 ZONE=  2 ACTIVE CELLS= 1455 NUMBER OF EQUATIONS=    1455
 SOLVING FOR ZETA FOR LAYER     2 ZONE     2

     635 UPPER PART EQS.       633 LOWER PART EQS.    BAND WIDTH + 1 =   32
 STRESS PERIOD=  3 TIMESTEP=128 LAYER=  2 ZONE=  2 ACTIVE CELLS= 1268 NUMBER OF EQUATIONS=    1268

 SOLVING FOR HEAD 

 NO OUTPUT CONTROL FOR STRESS PERIOD    3   TIME STEP  129
 SOLVING FOR ZETA FOR LAYER     1 ZONE     2

     729 UPPER PART EQS.       734 LOWER PART EQS.    BAND WIDTH + 1 =   29
 STRESS PERIOD=  3 TIMESTEP=129 LAYER=  1 ZONE=  2 ACTIVE CELLS= 1463 NUMBER OF EQUATIONS=    1463
 SOLVING FOR ZETA FOR LAYER     2 ZONE     2

     635 UPPER PART EQS.       634 LOWER PART EQS.    BAND WIDTH + 1 =   31
 STRESS PERIOD=  3 TIMESTEP=129 LAYER=  2 ZONE=  2 ACTIVE CELLS= 1269 NUMBER OF EQUATIONS=    1269

 SOLVING FOR HEAD 

 NO OUTPUT CONTROL FOR STRESS PERIOD    3   TIME STEP  130
 SOLVING FOR ZETA FOR LAYER     1 ZONE     2

     725 UPPER PART EQS.       726 LOWER PART EQS.    BAND WIDTH + 1 =   31
 STRESS PERIOD=  3 TIMESTEP=130 LAYER=  1 ZONE=  2 ACTIVE CELLS= 1451 NUMBER OF EQUATIONS=    1451
 SOLVING FOR ZETA FOR LAYER     2 ZONE     2

     635 UPPER PART EQS.       633 LOWER PART EQS.    BAND WIDTH + 1 =   32
 STRESS PERIOD=  3 TIMESTEP=130 LAYER=  2 ZONE=  2 ACTIVE CELLS= 1268 NUMBER OF EQUATIONS=    1268

 SOLVING FOR HEAD 

 NO OUTPUT CONTROL FOR STRESS PERIOD    3   TIME STEP  131
 SOLVING FOR ZETA FOR LAYER     1 ZONE     2

     721 UPPER PART EQS.       736 LOWER PART EQS.    BAND WIDTH + 1 =   35
 STRESS PERIOD=  3 TIMESTEP=131 LAYER=  1 ZONE=  2 ACTIVE CELLS= 1457 NUMBER OF EQUATIONS=    1457
 SOLVING FOR ZETA FOR LAYER     2 ZONE     2

     635 UPPER PART EQS.       634 LOWER PART EQS.    BAND WIDTH + 1 =   31
 STRESS PERIOD=  3 TIMESTEP=131 LAYER=  2 ZONE=  2 ACTIVE CELLS= 1269 NUMBER OF EQUATIONS=    1269

 SOLVING FOR HEAD 

 NO OUTPUT CONTROL FOR STRESS PERIOD    3   TIME STEP  132
 SOLVING FOR ZETA FOR LAYER     1 ZONE     2

     717 UPPER PART EQS.       736 LOWER PART EQS.    BAND WIDTH + 1 =   39
 STRESS PERIOD=  3 TIMESTEP=132 LAYER=  1 ZONE=  2 ACTIVE CELLS= 1453 NUMBER OF EQUATIONS=    1453
 SOLVING FOR ZETA FOR LAYER     2 ZONE     2

     634 UPPER PART EQS.       633 LOWER PART EQS.    BAND WIDTH + 1 =   31
 STRESS PERIOD=  3 TIMESTEP=132 LAYER=  2 ZONE=  2 ACTIVE CELLS= 1267 NUMBER OF EQUATIONS=    1267

 SOLVING FOR HEAD 

 NO OUTPUT CONTROL FOR STRESS PERIOD    3   TIME STEP  133
 SOLVING FOR ZETA FOR LAYER     1 ZONE     2

     733 UPPER PART EQS.       732 LOWER PART EQS.    BAND WIDTH + 1 =   33
 STRESS PERIOD=  3 TIMESTEP=133 LAYER=  1 ZONE=  2 ACTIVE CELLS= 1465 NUMBER OF EQUATIONS=    1465
 SOLVING FOR ZETA FOR LAYER     2 ZONE     2

     635 UPPER PART EQS.       634 LOWER PART EQS.    BAND WIDTH + 1 =   31
 STRESS PERIOD=  3 TIMESTEP=133 LAYER=  2 ZONE=  2 ACTIVE CELLS= 1269 NUMBER OF EQUATIONS=    1269

 SOLVING FOR HEAD 

 NO OUTPUT CONTROL FOR STRESS PERIOD    3   TIME STEP  134
 SOLVING FOR ZETA FOR LAYER     1 ZONE     2

     717 UPPER PART EQS.       736 LOWER PART EQS.    BAND WIDTH + 1 =   39
 STRESS PERIOD=  3 TIMESTEP=134 LAYER=  1 ZONE=  2 ACTIVE CELLS= 1453 NUMBER OF EQUATIONS=    1453
 SOLVING FOR ZETA FOR LAYER     2 ZONE     2

     634 UPPER PART EQS.       633 LOWER PART EQS.    BAND WIDTH + 1 =   31
 STRESS PERIOD=  3 TIMESTEP=134 LAYER=  2 ZONE=  2 ACTIVE CELLS= 1267 NUMBER OF EQUATIONS=    1267

 SOLVING FOR HEAD 

 NO OUTPUT CONTROL FOR STRESS PERIOD    3   TIME STEP  135
 SOLVING FOR ZETA FOR LAYER     1 ZONE     2

     721 UPPER PART EQS.       730 LOWER PART EQS.    BAND WIDTH + 1 =   29
 STRESS PERIOD=  3 TIMESTEP=135 LAYER=  1 ZONE=  2 ACTIVE CELLS= 1451 NUMBER OF EQUATIONS=    1451
 SOLVING FOR ZETA FOR LAYER     2 ZONE     2

     635 UPPER PART EQS.       634 LOWER PART EQS.    BAND WIDTH + 1 =   31
 STRESS PERIOD=  3 TIMESTEP=135 LAYER=  2 ZONE=  2 ACTIVE CELLS= 1269 NUMBER OF EQUATIONS=    1269

 SOLVING FOR HEAD 

 NO OUTPUT CONTROL FOR STRESS PERIOD    3   TIME STEP  136
 SOLVING FOR ZETA FOR LAYER     1 ZONE     2

     721 UPPER PART EQS.       738 LOWER PART EQS.    BAND WIDTH + 1 =   37
 STRESS PERIOD=  3 TIMESTEP=136 LAYER=  1 ZONE=  2 ACTIVE CELLS= 1459 NUMBER OF EQUATIONS=    1459
 SOLVING FOR ZETA FOR LAYER     2 ZONE     2

     634 UPPER PART EQS.       633 LOWER PART EQS.    BAND WIDTH + 1 =   31
 STRESS PERIOD=  3 TIMESTEP=136 LAYER=  2 ZONE=  2 ACTIVE CELLS= 1267 NUMBER OF EQUATIONS=    1267

 SOLVING FOR HEAD 

 NO OUTPUT CONTROL FOR STRESS PERIOD    3   TIME STEP  137
 SOLVING FOR ZETA FOR LAYER     1 ZONE     2

     729 UPPER PART EQS.       734 LOWER PART EQS.    BAND WIDTH + 1 =   27
 STRESS PERIOD=  3 TIMESTEP=137 LAYER=  1 ZONE=  2 ACTIVE CELLS= 1463 NUMBER OF EQUATIONS=    1463
 SOLVING FOR ZETA FOR LAYER     2 ZONE     2

     635 UPPER PART EQS.       634 LOWER PART EQS.    BAND WIDTH + 1 =   31
 STRESS PERIOD=  3 TIMESTEP=137 LAYER=  2 ZONE=  2 ACTIVE CELLS= 1269 NUMBER OF EQUATIONS=    1269

 SOLVING FOR HEAD 

 NO OUTPUT CONTROL FOR STRESS PERIOD    3   TIME STEP  138
 SOLVING FOR ZETA FOR LAYER     1 ZONE     2

     721 UPPER PART EQS.       730 LOWER PART EQS.    BAND WIDTH + 1 =   29
 STRESS PERIOD=  3 TIMESTEP=138 LAYER=  1 ZONE=  2 ACTIVE CELLS= 1451 NUMBER OF EQUATIONS=    1451
 SOLVING FOR ZETA FOR LAYER     2 ZONE     2

     634 UPPER PART EQS.       633 LOWER PART EQS.    BAND WIDTH + 1 =   31
 STRESS PERIOD=  3 TIMESTEP=138 LAYER=  2 ZONE=  2 ACTIVE CELLS= 1267 NUMBER OF EQUATIONS=    1267

 SOLVING FOR HEAD 

 NO OUTPUT CONTROL FOR STRESS PERIOD    3   TIME STEP  139
 SOLVING FOR ZETA FOR LAYER     1 ZONE     2

     723 UPPER PART EQS.       732 LOWER PART EQS.    BAND WIDTH + 1 =   30
 STRESS PERIOD=  3 TIMESTEP=139 LAYER=  1 ZONE=  2 ACTIVE CELLS= 1455 NUMBER OF EQUATIONS=    1455
 SOLVING FOR ZETA FOR LAYER     2 ZONE     2

     635 UPPER PART EQS.       634 LOWER PART EQS.    BAND WIDTH + 1 =   31
 STRESS PERIOD=  3 TIMESTEP=139 LAYER=  2 ZONE=  2 ACTIVE CELLS= 1269 NUMBER OF EQUATIONS=    1269

 SOLVING FOR HEAD 

 NO OUTPUT CONTROL FOR STRESS PERIOD    3   TIME STEP  140
 SOLVING FOR ZETA FOR LAYER     1 ZONE     2

     723 UPPER PART EQS.       740 LOWER PART EQS.    BAND WIDTH + 1 =   37
 STRESS PERIOD=  3 TIMESTEP=140 LAYER=  1 ZONE=  2 ACTIVE CELLS= 1463 NUMBER OF EQUATIONS=    1463
 SOLVING FOR ZETA FOR LAYER     2 ZONE     2

     634 UPPER PART EQS.       633 LOWER PART EQS.    BAND WIDTH + 1 =   31
 STRESS PERIOD=  3 TIMESTEP=140 LAYER=  2 ZONE=  2 ACTIVE CELLS= 1267 NUMBER OF EQUATIONS=    1267

 SOLVING FOR HEAD 

 NO OUTPUT CONTROL FOR STRESS PERIOD    3   TIME STEP  141
 SOLVING FOR ZETA FOR LAYER     1 ZONE     2

     725 UPPER PART EQS.       732 LOWER PART EQS.    BAND WIDTH + 1 =   27
 STRESS PERIOD=  3 TIMESTEP=141 LAYER=  1 ZONE=  2 ACTIVE CELLS= 1457 NUMBER OF EQUATIONS=    1457
 SOLVING FOR ZETA FOR LAYER     2 ZONE     2

     635 UPPER PART EQS.       634 LOWER PART EQS.    BAND WIDTH + 1 =   31
 STRESS PERIOD=  3 TIMESTEP=141 LAYER=  2 ZONE=  2 ACTIVE CELLS= 1269 NUMBER OF EQUATIONS=    1269

 SOLVING FOR HEAD 

 NO OUTPUT CONTROL FOR STRESS PERIOD    3   TIME STEP  142
 SOLVING FOR ZETA FOR LAYER     1 ZONE     2

     721 UPPER PART EQS.       730 LOWER PART EQS.    BAND WIDTH + 1 =   29
 STRESS PERIOD=  3 TIMESTEP=142 LAYER=  1 ZONE=  2 ACTIVE CELLS= 1451 NUMBER OF EQUATIONS=    1451
 SOLVING FOR ZETA FOR LAYER     2 ZONE     2

     634 UPPER PART EQS.       633 LOWER PART EQS.    BAND WIDTH + 1 =   31
 STRESS PERIOD=  3 TIMESTEP=142 LAYER=  2 ZONE=  2 ACTIVE CELLS= 1267 NUMBER OF EQUATIONS=    1267

 SOLVING FOR HEAD 

 NO OUTPUT CONTROL FOR STRESS PERIOD    3   TIME STEP  143
 SOLVING FOR ZETA FOR LAYER     1 ZONE     2

     723 UPPER PART EQS.       736 LOWER PART EQS.    BAND WIDTH + 1 =   33
 STRESS PERIOD=  3 TIMESTEP=143 LAYER=  1 ZONE=  2 ACTIVE CELLS= 1459 NUMBER OF EQUATIONS=    1459
 SOLVING FOR ZETA FOR LAYER     2 ZONE     2

     635 UPPER PART EQS.       634 LOWER PART EQS.    BAND WIDTH + 1 =   31
 STRESS PERIOD=  3 TIMESTEP=143 LAYER=  2 ZONE=  2 ACTIVE CELLS= 1269 NUMBER OF EQUATIONS=    1269

 SOLVING FOR HEAD 

 NO OUTPUT CONTROL FOR STRESS PERIOD    3   TIME STEP  144
 SOLVING FOR ZETA FOR LAYER     1 ZONE     2

     719 UPPER PART EQS.       738 LOWER PART EQS.    BAND WIDTH + 1 =   39
 STRESS PERIOD=  3 TIMESTEP=144 LAYER=  1 ZONE=  2 ACTIVE CELLS= 1457 NUMBER OF EQUATIONS=    1457
 SOLVING FOR ZETA FOR LAYER     2 ZONE     2

     634 UPPER PART EQS.       633 LOWER PART EQS.    BAND WIDTH + 1 =   31
 STRESS PERIOD=  3 TIMESTEP=144 LAYER=  2 ZONE=  2 ACTIVE CELLS= 1267 NUMBER OF EQUATIONS=    1267

 SOLVING FOR HEAD 

 NO OUTPUT CONTROL FOR STRESS PERIOD    3   TIME STEP  145
 SOLVING FOR ZETA FOR LAYER     1 ZONE     2

     735 UPPER PART EQS.       730 LOWER PART EQS.    BAND WIDTH + 1 =   37
 STRESS PERIOD=  3 TIMESTEP=145 LAYER=  1 ZONE=  2 ACTIVE CELLS= 1465 NUMBER OF EQUATIONS=    1465
 SOLVING FOR ZETA FOR LAYER     2 ZONE     2

     635 UPPER PART EQS.       634 LOWER PART EQS.    BAND WIDTH + 1 =   31
 STRESS PERIOD=  3 TIMESTEP=145 LAYER=  2 ZONE=  2 ACTIVE CELLS= 1269 NUMBER OF EQUATIONS=    1269

 SOLVING FOR HEAD 

 NO OUTPUT CONTROL FOR STRESS PERIOD    3   TIME STEP  146
 SOLVING FOR ZETA FOR LAYER     1 ZONE     2

     725 UPPER PART EQS.       732 LOWER PART EQS.    BAND WIDTH + 1 =   29
 STRESS PERIOD=  3 TIMESTEP=146 LAYER=  1 ZONE=  2 ACTIVE CELLS= 1457 NUMBER OF EQUATIONS=    1457
 SOLVING FOR ZETA FOR LAYER     2 ZONE     2

     634 UPPER PART EQS.       633 LOWER PART EQS.    BAND WIDTH + 1 =   31
 STRESS PERIOD=  3 TIMESTEP=146 LAYER=  2 ZONE=  2 ACTIVE CELLS= 1267 NUMBER OF EQUATIONS=    1267

 SOLVING FOR HEAD 

 NO OUTPUT CONTROL FOR STRESS PERIOD    3   TIME STEP  147
 SOLVING FOR ZETA FOR LAYER     1 ZONE     2

     721 UPPER PART EQS.       736 LOWER PART EQS.    BAND WIDTH + 1 =   35
 STRESS PERIOD=  3 TIMESTEP=147 LAYER=  1 ZONE=  2 ACTIVE CELLS= 1457 NUMBER OF EQUATIONS=    1457
 SOLVING FOR ZETA FOR LAYER     2 ZONE     2

     635 UPPER PART EQS.       634 LOWER PART EQS.    BAND WIDTH + 1 =   31
 STRESS PERIOD=  3 TIMESTEP=147 LAYER=  2 ZONE=  2 ACTIVE CELLS= 1269 NUMBER OF EQUATIONS=    1269

 SOLVING FOR HEAD 

 NO OUTPUT CONTROL FOR STRESS PERIOD    3   TIME STEP  148
 SOLVING FOR ZETA FOR LAYER     1 ZONE     2

     719 UPPER PART EQS.       738 LOWER PART EQS.    BAND WIDTH + 1 =   39
 STRESS PERIOD=  3 TIMESTEP=148 LAYER=  1 ZONE=  2 ACTIVE CELLS= 1457 NUMBER OF EQUATIONS=    1457
 SOLVING FOR ZETA FOR LAYER     2 ZONE     2

     634 UPPER PART EQS.       633 LOWER PART EQS.    BAND WIDTH + 1 =   31
 STRESS PERIOD=  3 TIMESTEP=148 LAYER=  2 ZONE=  2 ACTIVE CELLS= 1267 NUMBER OF EQUATIONS=    1267

 SOLVING FOR HEAD 

 NO OUTPUT CONTROL FOR STRESS PERIOD    3   TIME STEP  149
 SOLVING FOR ZETA FOR LAYER     1 ZONE     2

     729 UPPER PART EQS.       740 LOWER PART EQS.    BAND WIDTH + 1 =   31
 STRESS PERIOD=  3 TIMESTEP=149 LAYER=  1 ZONE=  2 ACTIVE CELLS= 1469 NUMBER OF EQUATIONS=    1469
 SOLVING FOR ZETA FOR LAYER     2 ZONE     2

     635 UPPER PART EQS.       634 LOWER PART EQS.    BAND WIDTH + 1 =   31
 STRESS PERIOD=  3 TIMESTEP=149 LAYER=  2 ZONE=  2 ACTIVE CELLS= 1269 NUMBER OF EQUATIONS=    1269

 SOLVING FOR HEAD 

 NO OUTPUT CONTROL FOR STRESS PERIOD    3   TIME STEP  150
 SOLVING FOR ZETA FOR LAYER     1 ZONE     2

     723 UPPER PART EQS.       732 LOWER PART EQS.    BAND WIDTH + 1 =   30
 STRESS PERIOD=  3 TIMESTEP=150 LAYER=  1 ZONE=  2 ACTIVE CELLS= 1455 NUMBER OF EQUATIONS=    1455
 SOLVING FOR ZETA FOR LAYER     2 ZONE     2

     634 UPPER PART EQS.       633 LOWER PART EQS.    BAND WIDTH + 1 =   31
 STRESS PERIOD=  3 TIMESTEP=150 LAYER=  2 ZONE=  2 ACTIVE CELLS= 1267 NUMBER OF EQUATIONS=    1267

 SOLVING FOR HEAD 

 NO OUTPUT CONTROL FOR STRESS PERIOD    3   TIME STEP  151
 SOLVING FOR ZETA FOR LAYER     1 ZONE     2

     729 UPPER PART EQS.       732 LOWER PART EQS.    BAND WIDTH + 1 =   30
 STRESS PERIOD=  3 TIMESTEP=151 LAYER=  1 ZONE=  2 ACTIVE CELLS= 1461 NUMBER OF EQUATIONS=    1461
 SOLVING FOR ZETA FOR LAYER     2 ZONE     2

     635 UPPER PART EQS.       634 LOWER PART EQS.    BAND WIDTH + 1 =   31
 STRESS PERIOD=  3 TIMESTEP=151 LAYER=  2 ZONE=  2 ACTIVE CELLS= 1269 NUMBER OF EQUATIONS=    1269

 SOLVING FOR HEAD 

 NO OUTPUT CONTROL FOR STRESS PERIOD    3   TIME STEP  152
 SOLVING FOR ZETA FOR LAYER     1 ZONE     2

     721 UPPER PART EQS.       744 LOWER PART EQS.    BAND WIDTH + 1 =   43
 STRESS PERIOD=  3 TIMESTEP=152 LAYER=  1 ZONE=  2 ACTIVE CELLS= 1465 NUMBER OF EQUATIONS=    1465
 SOLVING FOR ZETA FOR LAYER     2 ZONE     2

     634 UPPER PART EQS.       633 LOWER PART EQS.    BAND WIDTH + 1 =   31
 STRESS PERIOD=  3 TIMESTEP=152 LAYER=  2 ZONE=  2 ACTIVE CELLS= 1267 NUMBER OF EQUATIONS=    1267

 SOLVING FOR HEAD 

 NO OUTPUT CONTROL FOR STRESS PERIOD    3   TIME STEP  153
 SOLVING FOR ZETA FOR LAYER     1 ZONE     2

     725 UPPER PART EQS.       732 LOWER PART EQS.    BAND WIDTH + 1 =   27
 STRESS PERIOD=  3 TIMESTEP=153 LAYER=  1 ZONE=  2 ACTIVE CELLS= 1457 NUMBER OF EQUATIONS=    1457
 SOLVING FOR ZETA FOR LAYER     2 ZONE     2

     635 UPPER PART EQS.       634 LOWER PART EQS.    BAND WIDTH + 1 =   31
 STRESS PERIOD=  3 TIMESTEP=153 LAYER=  2 ZONE=  2 ACTIVE CELLS= 1269 NUMBER OF EQUATIONS=    1269

 SOLVING FOR HEAD 

 NO OUTPUT CONTROL FOR STRESS PERIOD    3   TIME STEP  154
 SOLVING FOR ZETA FOR LAYER     1 ZONE     2

     727 UPPER PART EQS.       732 LOWER PART EQS.    BAND WIDTH + 1 =   28
 STRESS PERIOD=  3 TIMESTEP=154 LAYER=  1 ZONE=  2 ACTIVE CELLS= 1459 NUMBER OF EQUATIONS=    1459
 SOLVING FOR ZETA FOR LAYER     2 ZONE     2

     634 UPPER PART EQS.       633 LOWER PART EQS.    BAND WIDTH + 1 =   31
 STRESS PERIOD=  3 TIMESTEP=154 LAYER=  2 ZONE=  2 ACTIVE CELLS= 1267 NUMBER OF EQUATIONS=    1267

 SOLVING FOR HEAD 

 NO OUTPUT CONTROL FOR STRESS PERIOD    3   TIME STEP  155
 SOLVING FOR ZETA FOR LAYER     1 ZONE     2

     727 UPPER PART EQS.       738 LOWER PART EQS.    BAND WIDTH + 1 =   31
 STRESS PERIOD=  3 TIMESTEP=155 LAYER=  1 ZONE=  2 ACTIVE CELLS= 1465 NUMBER OF EQUATIONS=    1465
 SOLVING FOR ZETA FOR LAYER     2 ZONE     2

     635 UPPER PART EQS.       634 LOWER PART EQS.    BAND WIDTH + 1 =   31
 STRESS PERIOD=  3 TIMESTEP=155 LAYER=  2 ZONE=  2 ACTIVE CELLS= 1269 NUMBER OF EQUATIONS=    1269

 SOLVING FOR HEAD 

 NO OUTPUT CONTROL FOR STRESS PERIOD    3   TIME STEP  156
 SOLVING FOR ZETA FOR LAYER     1 ZONE     2

     717 UPPER PART EQS.       736 LOWER PART EQS.    BAND WIDTH + 1 =   39
 STRESS PERIOD=  3 TIMESTEP=156 LAYER=  1 ZONE=  2 ACTIVE CELLS= 1453 NUMBER OF EQUATIONS=    1453
 SOLVING FOR ZETA FOR LAYER     2 ZONE     2

     634 UPPER PART EQS.       633 LOWER PART EQS.    BAND WIDTH + 1 =   31
 STRESS PERIOD=  3 TIMESTEP=156 LAYER=  2 ZONE=  2 ACTIVE CELLS= 1267 NUMBER OF EQUATIONS=    1267

 SOLVING FOR HEAD 

 NO OUTPUT CONTROL FOR STRESS PERIOD    3   TIME STEP  157
 SOLVING FOR ZETA FOR LAYER     1 ZONE     2

     731 UPPER PART EQS.       734 LOWER PART EQS.    BAND WIDTH + 1 =   30
 STRESS PERIOD=  3 TIMESTEP=157 LAYER=  1 ZONE=  2 ACTIVE CELLS= 1465 NUMBER OF EQUATIONS=    1465
 SOLVING FOR ZETA FOR LAYER     2 ZONE     2

     635 UPPER PART EQS.       634 LOWER PART EQS.    BAND WIDTH + 1 =   31
 STRESS PERIOD=  3 TIMESTEP=157 LAYER=  2 ZONE=  2 ACTIVE CELLS= 1269 NUMBER OF EQUATIONS=    1269

 SOLVING FOR HEAD 

 NO OUTPUT CONTROL FOR STRESS PERIOD    3   TIME STEP  158
 SOLVING FOR ZETA FOR LAYER     1 ZONE     2

     723 UPPER PART EQS.       732 LOWER PART EQS.    BAND WIDTH + 1 =   29
 STRESS PERIOD=  3 TIMESTEP=158 LAYER=  1 ZONE=  2 ACTIVE CELLS= 1455 NUMBER OF EQUATIONS=    1455
 SOLVING FOR ZETA FOR LAYER     2 ZONE     2

     634 UPPER PART EQS.       633 LOWER PART EQS.    BAND WIDTH + 1 =   31
 STRESS PERIOD=  3 TIMESTEP=158 LAYER=  2 ZONE=  2 ACTIVE CELLS= 1267 NUMBER OF EQUATIONS=    1267

 SOLVING FOR HEAD 

 NO OUTPUT CONTROL FOR STRESS PERIOD    3   TIME STEP  159
 SOLVING FOR ZETA FOR LAYER     1 ZONE     2

     725 UPPER PART EQS.       738 LOWER PART EQS.    BAND WIDTH + 1 =   33
 STRESS PERIOD=  3 TIMESTEP=159 LAYER=  1 ZONE=  2 ACTIVE CELLS= 1463 NUMBER OF EQUATIONS=    1463
 SOLVING FOR ZETA FOR LAYER     2 ZONE     2

     635 UPPER PART EQS.       634 LOWER PART EQS.    BAND WIDTH + 1 =   31
 STRESS PERIOD=  3 TIMESTEP=159 LAYER=  2 ZONE=  2 ACTIVE CELLS= 1269 NUMBER OF EQUATIONS=    1269

 SOLVING FOR HEAD 

 NO OUTPUT CONTROL FOR STRESS PERIOD    3   TIME STEP  160
 SOLVING FOR ZETA FOR LAYER     1 ZONE     2

     725 UPPER PART EQS.       742 LOWER PART EQS.    BAND WIDTH + 1 =   37
 STRESS PERIOD=  3 TIMESTEP=160 LAYER=  1 ZONE=  2 ACTIVE CELLS= 1467 NUMBER OF EQUATIONS=    1467
 SOLVING FOR ZETA FOR LAYER     2 ZONE     2

     634 UPPER PART EQS.       633 LOWER PART EQS.    BAND WIDTH + 1 =   31
 STRESS PERIOD=  3 TIMESTEP=160 LAYER=  2 ZONE=  2 ACTIVE CELLS= 1267 NUMBER OF EQUATIONS=    1267

 SOLVING FOR HEAD 

 NO OUTPUT CONTROL FOR STRESS PERIOD    3   TIME STEP  161
 SOLVING FOR ZETA FOR LAYER     1 ZONE     2

     721 UPPER PART EQS.       732 LOWER PART EQS.    BAND WIDTH + 1 =   31
 STRESS PERIOD=  3 TIMESTEP=161 LAYER=  1 ZONE=  2 ACTIVE CELLS= 1453 NUMBER OF EQUATIONS=    1453
 SOLVING FOR ZETA FOR LAYER     2 ZONE     2

     635 UPPER PART EQS.       634 LOWER PART EQS.    BAND WIDTH + 1 =   31
 STRESS PERIOD=  3 TIMESTEP=161 LAYER=  2 ZONE=  2 ACTIVE CELLS= 1269 NUMBER OF EQUATIONS=    1269

 SOLVING FOR HEAD 

 NO OUTPUT CONTROL FOR STRESS PERIOD    3   TIME STEP  162
 SOLVING FOR ZETA FOR LAYER     1 ZONE     2

     727 UPPER PART EQS.       736 LOWER PART EQS.    BAND WIDTH + 1 =   29
 STRESS PERIOD=  3 TIMESTEP=162 LAYER=  1 ZONE=  2 ACTIVE CELLS= 1463 NUMBER OF EQUATIONS=    1463
 SOLVING FOR ZETA FOR LAYER     2 ZONE     2

     634 UPPER PART EQS.       633 LOWER PART EQS.    BAND WIDTH + 1 =   31
 STRESS PERIOD=  3 TIMESTEP=162 LAYER=  2 ZONE=  2 ACTIVE CELLS= 1267 NUMBER OF EQUATIONS=    1267

 SOLVING FOR HEAD 

 NO OUTPUT CONTROL FOR STRESS PERIOD    3   TIME STEP  163
 SOLVING FOR ZETA FOR LAYER     1 ZONE     2

     727 UPPER PART EQS.       732 LOWER PART EQS.    BAND WIDTH + 1 =   27
 STRESS PERIOD=  3 TIMESTEP=163 LAYER=  1 ZONE=  2 ACTIVE CELLS= 1459 NUMBER OF EQUATIONS=    1459
 SOLVING FOR ZETA FOR LAYER     2 ZONE     2

     635 UPPER PART EQS.       634 LOWER PART EQS.    BAND WIDTH + 1 =   31
 STRESS PERIOD=  3 TIMESTEP=163 LAYER=  2 ZONE=  2 ACTIVE CELLS= 1269 NUMBER OF EQUATIONS=    1269

 SOLVING FOR HEAD 

 NO OUTPUT CONTROL FOR STRESS PERIOD    3   TIME STEP  164
 SOLVING FOR ZETA FOR LAYER     1 ZONE     2

     717 UPPER PART EQS.       740 LOWER PART EQS.    BAND WIDTH + 1 =   43
 STRESS PERIOD=  3 TIMESTEP=164 LAYER=  1 ZONE=  2 ACTIVE CELLS= 1457 NUMBER OF EQUATIONS=    1457
 SOLVING FOR ZETA FOR LAYER     2 ZONE     2

     634 UPPER PART EQS.       633 LOWER PART EQS.    BAND WIDTH + 1 =   31
 STRESS PERIOD=  3 TIMESTEP=164 LAYER=  2 ZONE=  2 ACTIVE CELLS= 1267 NUMBER OF EQUATIONS=    1267

 SOLVING FOR HEAD 

 NO OUTPUT CONTROL FOR STRESS PERIOD    3   TIME STEP  165
 SOLVING FOR ZETA FOR LAYER     1 ZONE     2

     729 UPPER PART EQS.       738 LOWER PART EQS.    BAND WIDTH + 1 =   29
 STRESS PERIOD=  3 TIMESTEP=165 LAYER=  1 ZONE=  2 ACTIVE CELLS= 1467 NUMBER OF EQUATIONS=    1467
 SOLVING FOR ZETA FOR LAYER     2 ZONE     2

     635 UPPER PART EQS.       634 LOWER PART EQS.    BAND WIDTH + 1 =   31
 STRESS PERIOD=  3 TIMESTEP=165 LAYER=  2 ZONE=  2 ACTIVE CELLS= 1269 NUMBER OF EQUATIONS=    1269

 SOLVING FOR HEAD 

 NO OUTPUT CONTROL FOR STRESS PERIOD    3   TIME STEP  166
 SOLVING FOR ZETA FOR LAYER     1 ZONE     2

     727 UPPER PART EQS.       730 LOWER PART EQS.    BAND WIDTH + 1 =   30
 STRESS PERIOD=  3 TIMESTEP=166 LAYER=  1 ZONE=  2 ACTIVE CELLS= 1457 NUMBER OF EQUATIONS=    1457
 SOLVING FOR ZETA FOR LAYER     2 ZONE     2

     634 UPPER PART EQS.       633 LOWER PART EQS.    BAND WIDTH + 1 =   31
 STRESS PERIOD=  3 TIMESTEP=166 LAYER=  2 ZONE=  2 ACTIVE CELLS= 1267 NUMBER OF EQUATIONS=    1267

 SOLVING FOR HEAD 

 NO OUTPUT CONTROL FOR STRESS PERIOD    3   TIME STEP  167
 SOLVING FOR ZETA FOR LAYER     1 ZONE     2

     725 UPPER PART EQS.       736 LOWER PART EQS.    BAND WIDTH + 1 =   31
 STRESS PERIOD=  3 TIMESTEP=167 LAYER=  1 ZONE=  2 ACTIVE CELLS= 1461 NUMBER OF EQUATIONS=    1461
 SOLVING FOR ZETA FOR LAYER     2 ZONE     2

     635 UPPER PART EQS.       634 LOWER PART EQS.    BAND WIDTH + 1 =   31
 STRESS PERIOD=  3 TIMESTEP=167 LAYER=  2 ZONE=  2 ACTIVE CELLS= 1269 NUMBER OF EQUATIONS=    1269

 SOLVING FOR HEAD 

 NO OUTPUT CONTROL FOR STRESS PERIOD    3   TIME STEP  168
 SOLVING FOR ZETA FOR LAYER     1 ZONE     2

     717 UPPER PART EQS.       740 LOWER PART EQS.    BAND WIDTH + 1 =   44
 STRESS PERIOD=  3 TIMESTEP=168 LAYER=  1 ZONE=  2 ACTIVE CELLS= 1457 NUMBER OF EQUATIONS=    1457
 SOLVING FOR ZETA FOR LAYER     2 ZONE     2

     634 UPPER PART EQS.       633 LOWER PART EQS.    BAND WIDTH + 1 =   31
 STRESS PERIOD=  3 TIMESTEP=168 LAYER=  2 ZONE=  2 ACTIVE CELLS= 1267 NUMBER OF EQUATIONS=    1267

 SOLVING FOR HEAD 

 NO OUTPUT CONTROL FOR STRESS PERIOD    3   TIME STEP  169
 SOLVING FOR ZETA FOR LAYER     1 ZONE     2

     731 UPPER PART EQS.       736 LOWER PART EQS.    BAND WIDTH + 1 =   29
 STRESS PERIOD=  3 TIMESTEP=169 LAYER=  1 ZONE=  2 ACTIVE CELLS= 1467 NUMBER OF EQUATIONS=    1467
 SOLVING FOR ZETA FOR LAYER     2 ZONE     2

     635 UPPER PART EQS.       634 LOWER PART EQS.    BAND WIDTH + 1 =   31
 STRESS PERIOD=  3 TIMESTEP=169 LAYER=  2 ZONE=  2 ACTIVE CELLS= 1269 NUMBER OF EQUATIONS=    1269

 SOLVING FOR HEAD 

 NO OUTPUT CONTROL FOR STRESS PERIOD    3   TIME STEP  170
 SOLVING FOR ZETA FOR LAYER     1 ZONE     2

     727 UPPER PART EQS.       728 LOWER PART EQS.    BAND WIDTH + 1 =   31
 STRESS PERIOD=  3 TIMESTEP=170 LAYER=  1 ZONE=  2 ACTIVE CELLS= 1455 NUMBER OF EQUATIONS=    1455
 SOLVING FOR ZETA FOR LAYER     2 ZONE     2

     634 UPPER PART EQS.       633 LOWER PART EQS.    BAND WIDTH + 1 =   31
 STRESS PERIOD=  3 TIMESTEP=170 LAYER=  2 ZONE=  2 ACTIVE CELLS= 1267 NUMBER OF EQUATIONS=    1267

 SOLVING FOR HEAD 

 NO OUTPUT CONTROL FOR STRESS PERIOD    3   TIME STEP  171
 SOLVING FOR ZETA FOR LAYER     1 ZONE     2

     721 UPPER PART EQS.       738 LOWER PART EQS.    BAND WIDTH + 1 =   37
 STRESS PERIOD=  3 TIMESTEP=171 LAYER=  1 ZONE=  2 ACTIVE CELLS= 1459 NUMBER OF EQUATIONS=    1459
 SOLVING FOR ZETA FOR LAYER     2 ZONE     2

     635 UPPER PART EQS.       634 LOWER PART EQS.    BAND WIDTH + 1 =   31
 STRESS PERIOD=  3 TIMESTEP=171 LAYER=  2 ZONE=  2 ACTIVE CELLS= 1269 NUMBER OF EQUATIONS=    1269

 SOLVING FOR HEAD 

 NO OUTPUT CONTROL FOR STRESS PERIOD    3   TIME STEP  172
 SOLVING FOR ZETA FOR LAYER     1 ZONE     2

     725 UPPER PART EQS.       744 LOWER PART EQS.    BAND WIDTH + 1 =   39
 STRESS PERIOD=  3 TIMESTEP=172 LAYER=  1 ZONE=  2 ACTIVE CELLS= 1469 NUMBER OF EQUATIONS=    1469
 SOLVING FOR ZETA FOR LAYER     2 ZONE     2

     634 UPPER PART EQS.       633 LOWER PART EQS.    BAND WIDTH + 1 =   31
 STRESS PERIOD=  3 TIMESTEP=172 LAYER=  2 ZONE=  2 ACTIVE CELLS= 1267 NUMBER OF EQUATIONS=    1267

 SOLVING FOR HEAD 

 NO OUTPUT CONTROL FOR STRESS PERIOD    3   TIME STEP  173
 SOLVING FOR ZETA FOR LAYER     1 ZONE     2

     723 UPPER PART EQS.       736 LOWER PART EQS.    BAND WIDTH + 1 =   33
 STRESS PERIOD=  3 TIMESTEP=173 LAYER=  1 ZONE=  2 ACTIVE CELLS= 1459 NUMBER OF EQUATIONS=    1459
 SOLVING FOR ZETA FOR LAYER     2 ZONE     2

     635 UPPER PART EQS.       634 LOWER PART EQS.    BAND WIDTH + 1 =   31
 STRESS PERIOD=  3 TIMESTEP=173 LAYER=  2 ZONE=  2 ACTIVE CELLS= 1269 NUMBER OF EQUATIONS=    1269

 SOLVING FOR HEAD 

 NO OUTPUT CONTROL FOR STRESS PERIOD    3   TIME STEP  174
 SOLVING FOR ZETA FOR LAYER     1 ZONE     2

     725 UPPER PART EQS.       736 LOWER PART EQS.    BAND WIDTH + 1 =   31
 STRESS PERIOD=  3 TIMESTEP=174 LAYER=  1 ZONE=  2 ACTIVE CELLS= 1461 NUMBER OF EQUATIONS=    1461
 SOLVING FOR ZETA FOR LAYER     2 ZONE     2

     634 UPPER PART EQS.       633 LOWER PART EQS.    BAND WIDTH + 1 =   31
 STRESS PERIOD=  3 TIMESTEP=174 LAYER=  2 ZONE=  2 ACTIVE CELLS= 1267 NUMBER OF EQUATIONS=    1267

 SOLVING FOR HEAD 

 NO OUTPUT CONTROL FOR STRESS PERIOD    3   TIME STEP  175
 SOLVING FOR ZETA FOR LAYER     1 ZONE     2

     729 UPPER PART EQS.       730 LOWER PART EQS.    BAND WIDTH + 1 =   31
 STRESS PERIOD=  3 TIMESTEP=175 LAYER=  1 ZONE=  2 ACTIVE CELLS= 1459 NUMBER OF EQUATIONS=    1459
 SOLVING FOR ZETA FOR LAYER     2 ZONE     2

     635 UPPER PART EQS.       634 LOWER PART EQS.    BAND WIDTH + 1 =   31
 STRESS PERIOD=  3 TIMESTEP=175 LAYER=  2 ZONE=  2 ACTIVE CELLS= 1269 NUMBER OF EQUATIONS=    1269

 SOLVING FOR HEAD 

 NO OUTPUT CONTROL FOR STRESS PERIOD    3   TIME STEP  176
 SOLVING FOR ZETA FOR LAYER     1 ZONE     2

     719 UPPER PART EQS.       736 LOWER PART EQS.    BAND WIDTH + 1 =   37
 STRESS PERIOD=  3 TIMESTEP=176 LAYER=  1 ZONE=  2 ACTIVE CELLS= 1455 NUMBER OF EQUATIONS=    1455
 SOLVING FOR ZETA FOR LAYER     2 ZONE     2

     634 UPPER PART EQS.       633 LOWER PART EQS.    BAND WIDTH + 1 =   31
 STRESS PERIOD=  3 TIMESTEP=176 LAYER=  2 ZONE=  2 ACTIVE CELLS= 1267 NUMBER OF EQUATIONS=    1267

 SOLVING FOR HEAD 

 NO OUTPUT CONTROL FOR STRESS PERIOD    3   TIME STEP  177
 SOLVING FOR ZETA FOR LAYER     1 ZONE     2

     729 UPPER PART EQS.       740 LOWER PART EQS.    BAND WIDTH + 1 =   31
 STRESS PERIOD=  3 TIMESTEP=177 LAYER=  1 ZONE=  2 ACTIVE CELLS= 1469 NUMBER OF EQUATIONS=    1469
 SOLVING FOR ZETA FOR LAYER     2 ZONE     2

     635 UPPER PART EQS.       634 LOWER PART EQS.    BAND WIDTH + 1 =   31
 STRESS PERIOD=  3 TIMESTEP=177 LAYER=  2 ZONE=  2 ACTIVE CELLS= 1269 NUMBER OF EQUATIONS=    1269

 SOLVING FOR HEAD 

 NO OUTPUT CONTROL FOR STRESS PERIOD    3   TIME STEP  178
 SOLVING FOR ZETA FOR LAYER     1 ZONE     2

     725 UPPER PART EQS.       734 LOWER PART EQS.    BAND WIDTH + 1 =   30
 STRESS PERIOD=  3 TIMESTEP=178 LAYER=  1 ZONE=  2 ACTIVE CELLS= 1459 NUMBER OF EQUATIONS=    1459
 SOLVING FOR ZETA FOR LAYER     2 ZONE     2

     634 UPPER PART EQS.       633 LOWER PART EQS.    BAND WIDTH + 1 =   31
 STRESS PERIOD=  3 TIMESTEP=178 LAYER=  2 ZONE=  2 ACTIVE CELLS= 1267 NUMBER OF EQUATIONS=    1267

 SOLVING FOR HEAD 

 NO OUTPUT CONTROL FOR STRESS PERIOD    3   TIME STEP  179
 SOLVING FOR ZETA FOR LAYER     1 ZONE     2

     725 UPPER PART EQS.       732 LOWER PART EQS.    BAND WIDTH + 1 =   27
 STRESS PERIOD=  3 TIMESTEP=179 LAYER=  1 ZONE=  2 ACTIVE CELLS= 1457 NUMBER OF EQUATIONS=    1457
 SOLVING FOR ZETA FOR LAYER     2 ZONE     2

     635 UPPER PART EQS.       634 LOWER PART EQS.    BAND WIDTH + 1 =   31
 STRESS PERIOD=  3 TIMESTEP=179 LAYER=  2 ZONE=  2 ACTIVE CELLS= 1269 NUMBER OF EQUATIONS=    1269

 SOLVING FOR HEAD 

 OUTPUT CONTROL FOR STRESS PERIOD    3   TIME STEP  180
    PRINT BUDGET
    SAVE HEAD FOR ALL LAYERS
 SOLVING FOR ZETA FOR LAYER     1 ZONE     2

     721 UPPER PART EQS.       738 LOWER PART EQS.    BAND WIDTH + 1 =   38
 STRESS PERIOD=  3 TIMESTEP=180 LAYER=  1 ZONE=  2 ACTIVE CELLS= 1459 NUMBER OF EQUATIONS=    1459
 SOLVING FOR ZETA FOR LAYER     2 ZONE     2

     634 UPPER PART EQS.       633 LOWER PART EQS.    BAND WIDTH + 1 =   31
 STRESS PERIOD=  3 TIMESTEP=180 LAYER=  2 ZONE=  2 ACTIVE CELLS= 1267 NUMBER OF EQUATIONS=    1267
 UBUDSV SAVING "      ZETASRF  1" ON UNIT 55 AT TIME STEP180, STRESS PERIOD    3


                      VOLUMETRIC SWI ZONE BUDGET FOR ENTIRE MODEL
                     AT END OF TIME STEP  180 IN STRESS PERIOD   3
                                      ZONE     1
  -----------------------------------------------------------------------------------

        CUMULATIVE VOLUMES      L**3       RATES FOR THIS TIME STEP      L**3/T
        ------------------                 ------------------------

              IN:                                      IN:
              ---                                      ---
             BOUNDARIES =   141206224.0000            BOUNDARIES =        1680.0000
          CONSTANT HEAD =           0.0000         CONSTANT HEAD =           0.0000
            ZONE CHANGE =     1730183.2500           ZONE CHANGE =          83.2332
       ZONE CHG TIP/TOE =      482013.3438      ZONE CHG TIP/TOE =           4.7824
            ZONE MIXING =           0.0000           ZONE MIXING =           0.0000

               TOTAL IN =   143418416.0000              TOTAL IN =        1768.0155

             OUT:                                     OUT:
             ----                                     ----
             BOUNDARIES =   124694432.0000            BOUNDARIES =        1762.4415
          CONSTANT HEAD =           0.0000         CONSTANT HEAD =           0.0000
            ZONE CHANGE =    18975840.0000           ZONE CHANGE =           3.4555
       ZONE CHG TIP/TOE =      492395.0625      ZONE CHG TIP/TOE =           5.0276
            ZONE MIXING =           0.0000           ZONE MIXING =           0.0000

              TOTAL OUT =   144162672.0000             TOTAL OUT =        1770.9246

               IN - OUT =     -744256.0000              IN - OUT =          -2.9091

    PERCENT DISCREPANCY =          -0.52     PERCENT DISCREPANCY =          -0.16



                      VOLUMETRIC SWI ZONE BUDGET FOR ENTIRE MODEL
                     AT END OF TIME STEP  180 IN STRESS PERIOD   3
                                      ZONE     2
  -----------------------------------------------------------------------------------

        CUMULATIVE VOLUMES      L**3       RATES FOR THIS TIME STEP      L**3/T
        ------------------                 ------------------------

              IN:                                      IN:
              ---                                      ---
             BOUNDARIES =     1144049.1250            BOUNDARIES =          82.4415
          CONSTANT HEAD =           0.0000         CONSTANT HEAD =           0.0000
            ZONE CHANGE =    18895886.0000           ZONE CHANGE =           3.1308
       ZONE CHG TIP/TOE =     1236175.1250      ZONE CHG TIP/TOE =           5.0276
            ZONE MIXING =           0.0000           ZONE MIXING =           0.0000

               TOTAL IN =    21276112.0000              TOTAL IN =          90.5999

             OUT:                                     OUT:
             ----                                     ----
             BOUNDARIES =    17655286.0000            BOUNDARIES =           0.0000
          CONSTANT HEAD =           0.0000         CONSTANT HEAD =           0.0000
            ZONE CHANGE =     2473962.7500           ZONE CHANGE =          83.2332
       ZONE CHG TIP/TOE =      402095.2500      ZONE CHG TIP/TOE =           4.4578
            ZONE MIXING =           0.0000           ZONE MIXING =           0.0000

              TOTAL OUT =    20531344.0000             TOTAL OUT =          87.6909

               IN - OUT =      744768.0000              IN - OUT =           2.9090

    PERCENT DISCREPANCY =           3.56     PERCENT DISCREPANCY =           3.26


 HEAD WILL BE SAVED ON UNIT   51 AT END OF TIME STEP  180, STRESS PERIOD    3
1
  VOLUMETRIC BUDGET FOR ENTIRE MODEL AT END OF TIME STEP  180, STRESS PERIOD   3
  ------------------------------------------------------------------------------

     CUMULATIVE VOLUMES      L**3       RATES FOR THIS TIME STEP      L**3/T
     ------------------                 ------------------------

           IN:                                      IN:
           ---                                      ---
             STORAGE =           0.0000               STORAGE =           0.0000
       CONSTANT HEAD =           0.0000         CONSTANT HEAD =           0.0000
               WELLS =           0.0000                 WELLS =           0.0000
     HEAD DEP BOUNDS =     1144049.1250       HEAD DEP BOUNDS =          82.4415
            RECHARGE =   141217312.0000              RECHARGE =        1681.0000
          SWIADDTOCH =           0.0000            SWIADDTOCH =           0.0000

            TOTAL IN =   142361360.0000              TOTAL IN =        1763.4415

          OUT:                                     OUT:
          ----                                     ----
             STORAGE =           0.0000               STORAGE =           0.0000
       CONSTANT HEAD =           0.0000         CONSTANT HEAD =           0.0000
               WELLS =     2739375.0000                 WELLS =         250.0000
     HEAD DEP BOUNDS =   139622448.0000       HEAD DEP BOUNDS =        1513.4415
            RECHARGE =           0.0000              RECHARGE =           0.0000
          SWIADDTOCH =           0.0000            SWIADDTOCH =           0.0000

           TOTAL OUT =   142361824.0000             TOTAL OUT =        1763.4415

            IN - OUT =        -464.0000              IN - OUT =           0.0000

 PERCENT DISCREPANCY =          -0.00     PERCENT DISCREPANCY =           0.00






         TIME SUMMARY AT END OF TIME STEP  180 IN STRESS PERIOD    3
                    SECONDS     MINUTES      HOURS       DAYS        YEARS
                    -----------------------------------------------------------
   TIME STEP LENGTH 3.15576E+06  52596.      876.60      36.525     0.10000    
 STRESS PERIOD TIME 5.68036E+08 9.46726E+06 1.57788E+05  6574.5      18.000    
         TOTAL TIME 7.25822E+09 1.20970E+08 2.01617E+06  84007.      230.00    
1

 Run end date and time (yyyy/mm/dd hh:mm:ss): 2016/02/15 16:32:46
 Elapsed run time: 14.715 Seconds

