                                  MODFLOW-2005     
      U.S. GEOLOGICAL SURVEY MODULAR FINITE-DIFFERENCE GROUND-WATER FLOW MODEL
                            VERSION 1.12.00 x/x/2015

 LIST FILE: werner2.list
                         UNIT    2

 OPENING werner2.dis
 FILE TYPE:DIS   UNIT   11   STATUS:OLD    
 FORMAT:FORMATTED              ACCESS:SEQUENTIAL          

 OPENING werner2.bas
 FILE TYPE:BAS6   UNIT   13   STATUS:OLD    
 FORMAT:FORMATTED              ACCESS:SEQUENTIAL          

 OPENING werner2.lpf
 FILE TYPE:LPF   UNIT   15   STATUS:OLD    
 FORMAT:FORMATTED              ACCESS:SEQUENTIAL          

 OPENING werner2.wel
 FILE TYPE:WEL   UNIT   20   STATUS:OLD    
 FORMAT:FORMATTED              ACCESS:SEQUENTIAL          

 OPENING werner2.swi2
 FILE TYPE:SWI2   UNIT   29   STATUS:OLD    
 FORMAT:FORMATTED              ACCESS:SEQUENTIAL          

 OPENING werner2.zta
 FILE TYPE:DATA(BINARY)   UNIT   55   STATUS:REPLACE
 FORMAT:UNFORMATTED            ACCESS:STREAM              

 OPENING werner2.zobs
 FILE TYPE:DATA   UNIT 1051   STATUS:REPLACE
 FORMAT:FORMATTED              ACCESS:SEQUENTIAL          

 OPENING werner2.oc
 FILE TYPE:OC   UNIT   14   STATUS:OLD    
 FORMAT:FORMATTED              ACCESS:SEQUENTIAL          

 OPENING werner2.hds
 FILE TYPE:DATA(BINARY)   UNIT   51   STATUS:REPLACE
 FORMAT:UNFORMATTED            ACCESS:STREAM              

 OPENING werner2.ddn
 FILE TYPE:DATA(BINARY)   UNIT   52   STATUS:REPLACE
 FORMAT:UNFORMATTED            ACCESS:STREAM              

 OPENING werner2.cbc
 FILE TYPE:DATA(BINARY)   UNIT   53   STATUS:REPLACE
 FORMAT:UNFORMATTED            ACCESS:STREAM              

 OPENING werner2.de4
 FILE TYPE:DE4   UNIT   28   STATUS:OLD    
 FORMAT:FORMATTED              ACCESS:SEQUENTIAL          

 BAS -- BASIC PACKAGE, VERSION 7, 5/2/2005 INPUT READ FROM UNIT   13

 MODFLOW was compiled using mixed precision
 Precision of REAL variables:           6
 Precision of DOUBLE PRECISION variables:          15

 DISCRETIZATION INPUT DATA READ FROM UNIT   11
 # Discretization file for MODFLOW, generated by Flopy.
    7 LAYERS         1 ROWS      1000 COLUMNS
    1 STRESS PERIOD(S) IN SIMULATION
 MODEL TIME UNIT IS DAYS
 MODEL LENGTH UNIT IS METERS
  Confining bed flag for each layer:
   0   0   0   0   0   0   0

                     DELR =  5.375000E-04

                     DELC =  5.300000E-02

 TOP ELEVATION OF LAYER 1 =   1.10000    

   MODEL LAYER BOTTOM EL. =  0.990000     FOR LAYER   1

   MODEL LAYER BOTTOM EL. =  0.880000     FOR LAYER   2

   MODEL LAYER BOTTOM EL. =  0.770000     FOR LAYER   3

   MODEL LAYER BOTTOM EL. =  0.660000     FOR LAYER   4

   MODEL LAYER BOTTOM EL. =  0.550000     FOR LAYER   5

   MODEL LAYER BOTTOM EL. =  0.150000     FOR LAYER   6

   MODEL LAYER BOTTOM EL. =   0.00000     FOR LAYER   7


 STRESS PERIOD     LENGTH       TIME STEPS     MULTIPLIER FOR DELT    SS FLAG
 ----------------------------------------------------------------------------
        1        0.2430560        200                    1.000         TR

 TRANSIENT SIMULATION




 # Basic package file for MODFLOW, generated by Flopy.                           
 THE FREE FORMAT OPTION HAS BEEN SELECTED



                     BOUNDARY ARRAY FOR LAYER   1
 READING ON UNIT   13 WITH FORMAT: (1000I10)           



                     BOUNDARY ARRAY FOR LAYER   2
 READING ON UNIT   13 WITH FORMAT: (1000I10)           



                     BOUNDARY ARRAY FOR LAYER   3
 READING ON UNIT   13 WITH FORMAT: (1000I10)           



                     BOUNDARY ARRAY FOR LAYER   4
 READING ON UNIT   13 WITH FORMAT: (1000I10)           



                     BOUNDARY ARRAY FOR LAYER   5
 READING ON UNIT   13 WITH FORMAT: (1000I10)           



                     BOUNDARY ARRAY FOR LAYER   6
 READING ON UNIT   13 WITH FORMAT: (1000I10)           



                     BOUNDARY ARRAY FOR LAYER   7
 READING ON UNIT   13 WITH FORMAT: (1000I10)           

 AQUIFER HEAD WILL BE SET TO  -999.99     AT ALL NO-FLOW NODES (IBOUND=0).

             INITIAL HEAD =   1.10000     FOR LAYER   1

             INITIAL HEAD =   1.10000     FOR LAYER   2

             INITIAL HEAD =   1.10000     FOR LAYER   3

             INITIAL HEAD =   1.10000     FOR LAYER   4

             INITIAL HEAD =   1.10000     FOR LAYER   5

             INITIAL HEAD =   1.10000     FOR LAYER   6

             INITIAL HEAD =   1.10000     FOR LAYER   7
 # Output control package file for MODFLOW, generated by Flopy.

 OUTPUT CONTROL IS SPECIFIED ONLY AT TIME STEPS FOR WHICH OUTPUT IS DESIRED
 COMPACT CELL-BY-CELL BUDGET FILES WILL BE WRITTEN
 AUXILIARY DATA WILL BE SAVED IN CELL-BY-CELL BUDGET FILES
 HEAD PRINT FORMAT CODE IS   0    DRAWDOWN PRINT FORMAT CODE IS   0
 HEADS WILL BE SAVED ON UNIT   51    DRAWDOWNS WILL BE SAVED ON UNIT   52

 LPF -- LAYER-PROPERTY FLOW PACKAGE, VERSION 7, 5/2/2005
         INPUT READ FROM UNIT   15
 # LPF for MODFLOW, generated by Flopy.
 CELL-BY-CELL FLOWS WILL BE SAVED ON UNIT   53
 HEAD AT CELLS THAT CONVERT TO DRY= -1.00000E+30
 No named parameters

   LAYER FLAGS:
 LAYER       LAYTYP        LAYAVG         CHANI        LAYVKA        LAYWET
 ---------------------------------------------------------------------------
    1             1             0     1.000E+00             0             0
    2             1             0     1.000E+00             0             0
    3             1             0     1.000E+00             0             0
    4             1             0     1.000E+00             0             0
    5             1             0     1.000E+00             0             0
    6             1             0     1.000E+00             0             0
    7             1             0     1.000E+00             0             0

   INTERPRETATION OF LAYER FLAGS:
                        INTERBLOCK     HORIZONTAL    DATA IN
         LAYER TYPE   TRANSMISSIVITY   ANISOTROPY   ARRAY VKA   WETTABILITY
 LAYER      (LAYTYP)      (LAYAVG)       (CHANI)      (LAYVKA)      (LAYWET)
 ---------------------------------------------------------------------------
    1   CONVERTIBLE      HARMONIC     1.000E+00    VERTICAL K  NON-WETTABLE
    2   CONVERTIBLE      HARMONIC     1.000E+00    VERTICAL K  NON-WETTABLE
    3   CONVERTIBLE      HARMONIC     1.000E+00    VERTICAL K  NON-WETTABLE
    4   CONVERTIBLE      HARMONIC     1.000E+00    VERTICAL K  NON-WETTABLE
    5   CONVERTIBLE      HARMONIC     1.000E+00    VERTICAL K  NON-WETTABLE
    6   CONVERTIBLE      HARMONIC     1.000E+00    VERTICAL K  NON-WETTABLE
    7   CONVERTIBLE      HARMONIC     1.000E+00    VERTICAL K  NON-WETTABLE

 WETTING CAPABILITY IS NOT ACTIVE IN ANY LAYER

    HYD. COND. ALONG ROWS =   140.000     FOR LAYER   1

      VERTICAL HYD. COND. =   140.000     FOR LAYER   1

         SPECIFIC STORAGE =  1.000000E-05 FOR LAYER   1

           SPECIFIC YIELD =  0.380000     FOR LAYER   1

    HYD. COND. ALONG ROWS =   140.000     FOR LAYER   2

      VERTICAL HYD. COND. =   140.000     FOR LAYER   2

         SPECIFIC STORAGE =  1.000000E-05 FOR LAYER   2

           SPECIFIC YIELD =  0.380000     FOR LAYER   2

    HYD. COND. ALONG ROWS =   140.000     FOR LAYER   3

      VERTICAL HYD. COND. =   140.000     FOR LAYER   3

         SPECIFIC STORAGE =  1.000000E-05 FOR LAYER   3

           SPECIFIC YIELD =  0.380000     FOR LAYER   3

    HYD. COND. ALONG ROWS =   140.000     FOR LAYER   4

      VERTICAL HYD. COND. =   140.000     FOR LAYER   4

         SPECIFIC STORAGE =  1.000000E-05 FOR LAYER   4

           SPECIFIC YIELD =  0.380000     FOR LAYER   4

    HYD. COND. ALONG ROWS =   140.000     FOR LAYER   5

      VERTICAL HYD. COND. =   140.000     FOR LAYER   5

         SPECIFIC STORAGE =  1.000000E-05 FOR LAYER   5

           SPECIFIC YIELD =  0.380000     FOR LAYER   5

    HYD. COND. ALONG ROWS =   140.000     FOR LAYER   6

      VERTICAL HYD. COND. =   140.000     FOR LAYER   6

         SPECIFIC STORAGE =  1.000000E-05 FOR LAYER   6

           SPECIFIC YIELD =  0.380000     FOR LAYER   6

    HYD. COND. ALONG ROWS =   140.000     FOR LAYER   7

      VERTICAL HYD. COND. =   140.000     FOR LAYER   7

         SPECIFIC STORAGE =  1.000000E-05 FOR LAYER   7

           SPECIFIC YIELD =  0.380000     FOR LAYER   7

 WEL -- WELL PACKAGE, VERSION 7, 5/2/2005 INPUT READ FROM UNIT   20
 # Well file for MODFLOW, generated by Flopy.
 No named parameters
 MAXIMUM OF      1 ACTIVE WELLS AT ONE TIME


     0 Well parameters

 DE4 -- D4 DIRECT SOLUTION PACKAGE, VERSION 7, 5/2/2005  INPUT READ FROM UNIT   28
 # DE4 for MODFLOW, generated by Flopy.
 MAXIMUM ITERATIONS (EXTERNAL OR INTERNAL) = 50
 MAXIMUM EQUATIONS IN UPPER PART OF [A]:   3500
 MAXIMUM EQUATIONS IN LOWER PART OF [A]:   3500
 MAXIMUM BAND WIDTH OF [AL] PLUS 1:    8

                     SOLUTION BY D4 DIRECT SOLVER WITH EXTERNAL ITERATION
                     ----------------------------------------------------

 MAXIMUM ITERATIONS = 50
 RELAXATION-ACCELERATION PARAMETER =  1.000000
 HEAD CHANGE CRITERION FOR CLOSURE =    0.10000E-04
 D4 PRINTOUT INTERVAL =   1
 NON-LINEAR PROBLEM -- [A] MATRIX ELIMINATED EVERY TIME EQUATIONS ARE REFORMULATED


 SWI2 -- SWI PACKAGE, VERSION 2.0.0, 07/22/2013
 --------------------------------------------------
 SWI2 INPUT READ FROM UNIT 29


 # Salt Water Intrusion (SWI2) package file for MODFLOW-2005, generated by Flopy.
 # Dataset 1


 SWI2 DATASET 1
 ----------------------------------------------------
 NUMBER OF SURFACES (NSRF):                         1
 TOTAL NUMBER OF ZONES:                             2
 DENSITY DISTRIBUTION OPTION (ISTRAT):              1
   VARIABLE DENSITY FLOW -- ISTRAT = 0
   STRATIFIED FLOW       -- ISTRAT = 1
 NUMBER OF SWI OBSERVATIONS (NOBS):                 4
 ZETA OUTPUT FILE UNIT NUMBER (ISWIZT):            55
 BUDGET OUTPUT FILE UNIT NUMBER (ISWICB):          53
 OBSERVATION OUTPUT FILE UNIT NUMBER (ISWIOBS):  1051
 ----------------------------------------------------
 # Dataset 2a


 SWI2 DATASET 2A
 ----------------------------------------------------
 SOLVER (NSOLVER):                                  1
   SOLVER =                      DIRECT SOLVER (DE4)
 SOLVER PRINTOUT INTERVAL (IPRSOL):               999
 SOLVER OUTPUT FLAG (MUTSOL):                       3
   0 = PRINTING EVERY ITERATION
   1 = LIMITED (TOTAL NUMBER OF ITERATIONS)
   2 = NO PRINTING
   3 = ONLY IF CONVERGENCE FAILS
 ----------------------------------------------------
 # Dataset 3a


 SWI2 DATASET 3A
 ----------------------------------------------------
 MAXIMUM TOE SURFACE SLOPE (TOESLOPE):      0.500E-02
 MAXIMUM TIP SURFACE SLOPE (TIPSLOPE):      0.500E-02
 EXCESS SURFACE SLOPE FRACTION (ALPHA):     0.100    
 MINIMUM ZONE THICKNESS FRACTION (BETA):    0.100    
 ----------------------------------------------------



                             NUZONE
 READING ON UNIT   29 WITH FORMAT: (2E15.6)            

         ZETA SURFACE  1  =  0.150000     FOR LAYER   1

         ZETA SURFACE  1  =  0.150000     FOR LAYER   2

         ZETA SURFACE  1  =  0.150000     FOR LAYER   3

         ZETA SURFACE  1  =  0.150000     FOR LAYER   4

         ZETA SURFACE  1  =  0.150000     FOR LAYER   5

         ZETA SURFACE  1  =  0.150000     FOR LAYER   6

         ZETA SURFACE  1  =  0.150000     FOR LAYER   7

                      SSZ =  0.380000     FOR LAYER   1

                      SSZ =  0.380000     FOR LAYER   2

                      SSZ =  0.380000     FOR LAYER   3

                      SSZ =  0.380000     FOR LAYER   4

                      SSZ =  0.380000     FOR LAYER   5

                      SSZ =  0.380000     FOR LAYER   6

                      SSZ =  0.380000     FOR LAYER   7



                            IZONENR FOR LAYER   1
 READING ON UNIT   29 WITH FORMAT: (1000I10)           



                            IZONENR FOR LAYER   2
 READING ON UNIT   29 WITH FORMAT: (1000I10)           



                            IZONENR FOR LAYER   3
 READING ON UNIT   29 WITH FORMAT: (1000I10)           



                            IZONENR FOR LAYER   4
 READING ON UNIT   29 WITH FORMAT: (1000I10)           



                            IZONENR FOR LAYER   5
 READING ON UNIT   29 WITH FORMAT: (1000I10)           



                            IZONENR FOR LAYER   6
 READING ON UNIT   29 WITH FORMAT: (1000I10)           



                            IZONENR FOR LAYER   7
 READING ON UNIT   29 WITH FORMAT: (1000I10)           
 # Dataset 8


                 SWI2 OBSERVATION LOCATIONS
  OBSERVATION      LAYER        ROW     COLUMN       OBSNAM
 ----------------------------------------------------------
            1          4          1       1000      layer4_
            2          5          1       1000      layer5_
            3          6          1       1000      layer6_
            4          7          1       1000      layer7_


              SWI2 INVALID OBSERVATION LOCATIONS
 -----------------------------------------------------------
         NONE
1
                            STRESS PERIOD NO.    1, LENGTH =  0.2430560    
                            -----------------------------------------------

                              NUMBER OF TIME STEPS =   200

                               MULTIPLIER FOR DELT =     1.000

                            INITIAL TIME STEP SIZE =  0.1215280E-02

 WELL NO.  LAYER   ROW   COL   STRESS RATE         
 --------------------------------------------------
      1      4      1   1000     -0.1642    

      1 WELL 

 SOLVING FOR HEAD 

    3496 UPPER PART EQS.      3497 LOWER PART EQS.    BAND WIDTH + 1 =    8

     3 EXTERNAL ITERATIONS FOR TIME STEP   1 IN STRESS PERIOD    1

 MAXIMUM HEAD CHANGE FOR EACH ITERATION:

     HEAD CHANGE  LAY,ROW,COL      HEAD CHANGE  LAY,ROW,COL  
 ------------------------------------------------------------
    -2.729E-02 (  4,    1, 1000)  -1.367E-04 (  5,    1,  999)
    -2.553E-06 (  6,    1,  999)



 OUTPUT CONTROL FOR STRESS PERIOD    1   TIME STEP    1
    PRINT BUDGET
    SAVE HEAD FOR ALL LAYERS
 UBUDSV SAVING "      ZETASRF  1" ON UNIT 55 AT TIME STEP  1, STRESS PERIOD    1


                      VOLUMETRIC SWI ZONE BUDGET FOR ENTIRE MODEL
                     AT END OF TIME STEP    1 IN STRESS PERIOD   1
                                      ZONE     1
  -----------------------------------------------------------------------------------

        CUMULATIVE VOLUMES      L**3       RATES FOR THIS TIME STEP      L**3/T
        ------------------                 ------------------------

              IN:                                      IN:
              ---                                      ---
             BOUNDARIES =       1.9513E-10            BOUNDARIES =       1.6056E-07
          CONSTANT HEAD =       1.4543E-04         CONSTANT HEAD =           0.1197
            ZONE CHANGE =       3.9438E-05           ZONE CHANGE =       3.2452E-02
       ZONE CHG TIP/TOE =       1.4634E-05      ZONE CHG TIP/TOE =       1.2041E-02
            ZONE MIXING =           0.0000           ZONE MIXING =           0.0000

               TOTAL IN =       1.9950E-04              TOTAL IN =           0.1642

             OUT:                                     OUT:
             ----                                     ----
             BOUNDARIES =       1.9950E-04            BOUNDARIES =           0.1642
          CONSTANT HEAD =           0.0000         CONSTANT HEAD =           0.0000
            ZONE CHANGE =           0.0000           ZONE CHANGE =           0.0000
       ZONE CHG TIP/TOE =           0.0000      ZONE CHG TIP/TOE =           0.0000
            ZONE MIXING =           0.0000           ZONE MIXING =           0.0000

              TOTAL OUT =       1.9950E-04             TOTAL OUT =           0.1642

               IN - OUT =      -7.2760E-10              IN - OUT =      -5.9605E-07

    PERCENT DISCREPANCY =          -0.00     PERCENT DISCREPANCY =          -0.00



                      VOLUMETRIC SWI ZONE BUDGET FOR ENTIRE MODEL
                     AT END OF TIME STEP    1 IN STRESS PERIOD   1
                                      ZONE     2
  -----------------------------------------------------------------------------------

        CUMULATIVE VOLUMES      L**3       RATES FOR THIS TIME STEP      L**3/T
        ------------------                 ------------------------

              IN:                                      IN:
              ---                                      ---
             BOUNDARIES =       8.0566E-16            BOUNDARIES =       6.6294E-13
          CONSTANT HEAD =       1.4633E-05         CONSTANT HEAD =       1.2041E-02
            ZONE CHANGE =       1.0371E-10           ZONE CHANGE =       8.5341E-08
       ZONE CHG TIP/TOE =           0.0000      ZONE CHG TIP/TOE =           0.0000
            ZONE MIXING =           0.0000           ZONE MIXING =           0.0000

               TOTAL IN =       1.4633E-05              TOTAL IN =       1.2041E-02

             OUT:                                     OUT:
             ----                                     ----
             BOUNDARIES =       8.3272E-16            BOUNDARIES =       6.8521E-13
          CONSTANT HEAD =           0.0000         CONSTANT HEAD =           0.0000
            ZONE CHANGE =           0.0000           ZONE CHANGE =           0.0000
       ZONE CHG TIP/TOE =       1.4634E-05      ZONE CHG TIP/TOE =       1.2041E-02
            ZONE MIXING =           0.0000           ZONE MIXING =           0.0000

              TOTAL OUT =       1.4634E-05             TOTAL OUT =       1.2041E-02

               IN - OUT =      -4.8203E-11              IN - OUT =      -3.9116E-08

    PERCENT DISCREPANCY =          -0.00     PERCENT DISCREPANCY =          -0.00


 HEAD WILL BE SAVED ON UNIT   51 AT END OF TIME STEP    1, STRESS PERIOD    1
1
  VOLUMETRIC BUDGET FOR ENTIRE MODEL AT END OF TIME STEP    1, STRESS PERIOD   1
  ------------------------------------------------------------------------------

     CUMULATIVE VOLUMES      L**3       RATES FOR THIS TIME STEP      L**3/T
     ------------------                 ------------------------

           IN:                                      IN:
           ---                                      ---
             STORAGE =       3.9438E-05               STORAGE =       3.2452E-02
       CONSTANT HEAD =       1.6006E-04         CONSTANT HEAD =           0.1317
               WELLS =           0.0000                 WELLS =           0.0000
          SWIADDTOCH =           0.0000            SWIADDTOCH =           0.0000

            TOTAL IN =       1.9950E-04              TOTAL IN =           0.1642

          OUT:                                     OUT:
          ----                                     ----
             STORAGE =           0.0000               STORAGE =           0.0000
       CONSTANT HEAD =           0.0000         CONSTANT HEAD =           0.0000
               WELLS =       1.9950E-04                 WELLS =           0.1642
          SWIADDTOCH =           0.0000            SWIADDTOCH =           0.0000

           TOTAL OUT =       1.9950E-04             TOTAL OUT =           0.1642

            IN - OUT =      -1.1496E-09              IN - OUT =      -9.3877E-07

 PERCENT DISCREPANCY =          -0.00     PERCENT DISCREPANCY =          -0.00






         TIME SUMMARY AT END OF TIME STEP    1 IN STRESS PERIOD    1
                    SECONDS     MINUTES      HOURS       DAYS        YEARS
                    -----------------------------------------------------------
   TIME STEP LENGTH  105.00      1.7500     2.91667E-02 1.21528E-03 3.32726E-06
 STRESS PERIOD TIME  105.00      1.7500     2.91667E-02 1.21528E-03 3.32726E-06
         TOTAL TIME  105.00      1.7500     2.91667E-02 1.21528E-03 3.32726E-06
1

 SOLVING FOR HEAD 
     3 EXTERNAL ITERATIONS FOR TIME STEP   2 IN STRESS PERIOD    1

 MAXIMUM HEAD CHANGE FOR EACH ITERATION:

     HEAD CHANGE  LAY,ROW,COL      HEAD CHANGE  LAY,ROW,COL  
 ------------------------------------------------------------
    -2.366E-03 (  1,    1, 1000)  -3.866E-05 (  1,    1, 1000)
    -4.457E-07 (  1,    1, 1000)



 OUTPUT CONTROL FOR STRESS PERIOD    1   TIME STEP    2
    PRINT BUDGET
    SAVE HEAD FOR ALL LAYERS
 SOLVING FOR ZETA FOR LAYER     6 ZONE     2

     499 UPPER PART EQS.       500 LOWER PART EQS.    BAND WIDTH + 1 =    2
 STRESS PERIOD=  1 TIMESTEP=  2 LAYER=  6 ZONE=  2 ACTIVE CELLS=  999 NUMBER OF EQUATIONS=     999
 UBUDSV SAVING "      ZETASRF  1" ON UNIT 55 AT TIME STEP  2, STRESS PERIOD    1


                      VOLUMETRIC SWI ZONE BUDGET FOR ENTIRE MODEL
                     AT END OF TIME STEP    2 IN STRESS PERIOD   1
                                      ZONE     1
  -----------------------------------------------------------------------------------

        CUMULATIVE VOLUMES      L**3       RATES FOR THIS TIME STEP      L**3/T
        ------------------                 ------------------------

              IN:                                      IN:
              ---                                      ---
             BOUNDARIES =       3.9059E-10            BOUNDARIES =       1.6084E-07
          CONSTANT HEAD =       3.1351E-04         CONSTANT HEAD =           0.1383
            ZONE CHANGE =       7.0860E-05           ZONE CHANGE =       2.5856E-02
       ZONE CHG TIP/TOE =       1.4634E-05      ZONE CHG TIP/TOE =       7.8724E-07
            ZONE MIXING =           0.0000           ZONE MIXING =           0.0000

               TOTAL IN =       3.9900E-04              TOTAL IN =           0.1642

             OUT:                                     OUT:
             ----                                     ----
             BOUNDARIES =       3.9900E-04            BOUNDARIES =           0.1642
          CONSTANT HEAD =           0.0000         CONSTANT HEAD =           0.0000
            ZONE CHANGE =       1.8307E-09           ZONE CHANGE =       1.5064E-06
       ZONE CHG TIP/TOE =           0.0000      ZONE CHG TIP/TOE =           0.0000
            ZONE MIXING =           0.0000           ZONE MIXING =           0.0000

              TOTAL OUT =       3.9900E-04             TOTAL OUT =           0.1642

               IN - OUT =       3.4925E-10              IN - OUT =       9.2387E-07

    PERCENT DISCREPANCY =           0.00     PERCENT DISCREPANCY =           0.00



                      VOLUMETRIC SWI ZONE BUDGET FOR ENTIRE MODEL
                     AT END OF TIME STEP    2 IN STRESS PERIOD   1
                                      ZONE     2
  -----------------------------------------------------------------------------------

        CUMULATIVE VOLUMES      L**3       RATES FOR THIS TIME STEP      L**3/T
        ------------------                 ------------------------

              IN:                                      IN:
              ---                                      ---
             BOUNDARIES =       1.5993E-15            BOUNDARIES =       6.5303E-13
          CONSTANT HEAD =       3.0106E-05         CONSTANT HEAD =       1.2732E-02
            ZONE CHANGE =       9.8337E-10           ZONE CHANGE =       7.2383E-07
       ZONE CHG TIP/TOE =           0.0000      ZONE CHG TIP/TOE =           0.0000
            ZONE MIXING =           0.0000           ZONE MIXING =           0.0000

               TOTAL IN =       3.0107E-05              TOTAL IN =       1.2733E-02

             OUT:                                     OUT:
             ----                                     ----
             BOUNDARIES =       1.5971E-15            BOUNDARIES =       6.2900E-13
          CONSTANT HEAD =           0.0000         CONSTANT HEAD =           0.0000
            ZONE CHANGE =       1.5475E-05           ZONE CHANGE =       1.2733E-02
       ZONE CHG TIP/TOE =       1.4634E-05      ZONE CHG TIP/TOE =           0.0000
            ZONE MIXING =           0.0000           ZONE MIXING =           0.0000

              TOTAL OUT =       3.0108E-05             TOTAL OUT =       1.2733E-02

               IN - OUT =      -8.8949E-10              IN - OUT =      -6.9290E-07

    PERCENT DISCREPANCY =          -0.00     PERCENT DISCREPANCY =          -0.01


 HEAD WILL BE SAVED ON UNIT   51 AT END OF TIME STEP    2, STRESS PERIOD    1
1
  VOLUMETRIC BUDGET FOR ENTIRE MODEL AT END OF TIME STEP    2, STRESS PERIOD   1
  ------------------------------------------------------------------------------

     CUMULATIVE VOLUMES      L**3       RATES FOR THIS TIME STEP      L**3/T
     ------------------                 ------------------------

           IN:                                      IN:
           ---                                      ---
             STORAGE =       5.5385E-05               STORAGE =       1.3122E-02
       CONSTANT HEAD =       3.4361E-04         CONSTANT HEAD =           0.1510
               WELLS =           0.0000                 WELLS =           0.0000
          SWIADDTOCH =           0.0000            SWIADDTOCH =           0.0000

            TOTAL IN =       3.9900E-04              TOTAL IN =           0.1642

          OUT:                                     OUT:
          ----                                     ----
             STORAGE =           0.0000               STORAGE =           0.0000
       CONSTANT HEAD =           0.0000         CONSTANT HEAD =           0.0000
               WELLS =       3.9900E-04                 WELLS =           0.1642
          SWIADDTOCH =           0.0000            SWIADDTOCH =           0.0000

           TOTAL OUT =       3.9900E-04             TOTAL OUT =           0.1642

            IN - OUT =      -1.2515E-09              IN - OUT =      -7.4506E-08

 PERCENT DISCREPANCY =          -0.00     PERCENT DISCREPANCY =          -0.00






         TIME SUMMARY AT END OF TIME STEP    2 IN STRESS PERIOD    1
                    SECONDS     MINUTES      HOURS       DAYS        YEARS
                    -----------------------------------------------------------
   TIME STEP LENGTH  105.00      1.7500     2.91667E-02 1.21528E-03 3.32726E-06
 STRESS PERIOD TIME  210.00      3.5000     5.83334E-02 2.43056E-03 6.65451E-06
         TOTAL TIME  210.00      3.5000     5.83334E-02 2.43056E-03 6.65451E-06
1

 SOLVING FOR HEAD 
     3 EXTERNAL ITERATIONS FOR TIME STEP   3 IN STRESS PERIOD    1

 MAXIMUM HEAD CHANGE FOR EACH ITERATION:

     HEAD CHANGE  LAY,ROW,COL      HEAD CHANGE  LAY,ROW,COL  
 ------------------------------------------------------------
    -9.379E-04 (  1,    1, 1000)  -1.658E-05 (  1,    1, 1000)
    -1.822E-07 (  1,    1, 1000)



 OUTPUT CONTROL FOR STRESS PERIOD    1   TIME STEP    3
    PRINT BUDGET
    SAVE HEAD FOR ALL LAYERS
 SOLVING FOR ZETA FOR LAYER     6 ZONE     2

     497 UPPER PART EQS.       497 LOWER PART EQS.    BAND WIDTH + 1 =    2
 STRESS PERIOD=  1 TIMESTEP=  3 LAYER=  6 ZONE=  2 ACTIVE CELLS=  994 NUMBER OF EQUATIONS=     994
 UBUDSV SAVING "      ZETASRF  1" ON UNIT 55 AT TIME STEP  3, STRESS PERIOD    1


                      VOLUMETRIC SWI ZONE BUDGET FOR ENTIRE MODEL
                     AT END OF TIME STEP    3 IN STRESS PERIOD   1
                                      ZONE     1
  -----------------------------------------------------------------------------------

        CUMULATIVE VOLUMES      L**3       RATES FOR THIS TIME STEP      L**3/T
        ------------------                 ------------------------

              IN:                                      IN:
              ---                                      ---
             BOUNDARIES =       6.0105E-10            BOUNDARIES =       1.7318E-07
          CONSTANT HEAD =       4.9086E-04         CONSTANT HEAD =           0.1459
            ZONE CHANGE =       9.3013E-05           ZONE CHANGE =       1.8228E-02
       ZONE CHG TIP/TOE =       1.4636E-05      ZONE CHG TIP/TOE =       1.5872E-06
            ZONE MIXING =           0.0000           ZONE MIXING =           0.0000

               TOTAL IN =       5.9851E-04              TOTAL IN =           0.1642

             OUT:                                     OUT:
             ----                                     ----
             BOUNDARIES =       5.9850E-04            BOUNDARIES =           0.1642
          CONSTANT HEAD =           0.0000         CONSTANT HEAD =           0.0000
            ZONE CHANGE =       6.0457E-09           ZONE CHANGE =       3.4683E-06
       ZONE CHG TIP/TOE =           0.0000      ZONE CHG TIP/TOE =           0.0000
            ZONE MIXING =           0.0000           ZONE MIXING =           0.0000

              TOTAL OUT =       5.9851E-04             TOTAL OUT =           0.1642

               IN - OUT =       2.0373E-09              IN - OUT =       1.4156E-06

    PERCENT DISCREPANCY =           0.00     PERCENT DISCREPANCY =           0.00



                      VOLUMETRIC SWI ZONE BUDGET FOR ENTIRE MODEL
                     AT END OF TIME STEP    3 IN STRESS PERIOD   1
                                      ZONE     2
  -----------------------------------------------------------------------------------

        CUMULATIVE VOLUMES      L**3       RATES FOR THIS TIME STEP      L**3/T
        ------------------                 ------------------------

              IN:                                      IN:
              ---                                      ---
             BOUNDARIES =       2.4594E-15            BOUNDARIES =       7.0778E-13
          CONSTANT HEAD =       4.5839E-05         CONSTANT HEAD =       1.2946E-02
            ZONE CHANGE =       3.7638E-09           ZONE CHANGE =       2.2879E-06
       ZONE CHG TIP/TOE =           0.0000      ZONE CHG TIP/TOE =           0.0000
            ZONE MIXING =           0.0000           ZONE MIXING =           0.0000

               TOTAL IN =       4.5843E-05              TOTAL IN =       1.2948E-02

             OUT:                                     OUT:
             ----                                     ----
             BOUNDARIES =       2.4056E-15            BOUNDARIES =       6.6524E-13
          CONSTANT HEAD =           0.0000         CONSTANT HEAD =           0.0000
            ZONE CHANGE =       3.1211E-05           ZONE CHANGE =       1.2949E-02
       ZONE CHG TIP/TOE =       1.4634E-05      ZONE CHG TIP/TOE =       4.0537E-07
            ZONE MIXING =           0.0000           ZONE MIXING =           0.0000

              TOTAL OUT =       4.5845E-05             TOTAL OUT =       1.2949E-02

               IN - OUT =      -2.2519E-09              IN - OUT =      -1.1194E-06

    PERCENT DISCREPANCY =          -0.00     PERCENT DISCREPANCY =          -0.01


 HEAD WILL BE SAVED ON UNIT   51 AT END OF TIME STEP    3, STRESS PERIOD    1
1
  VOLUMETRIC BUDGET FOR ENTIRE MODEL AT END OF TIME STEP    3, STRESS PERIOD   1
  ------------------------------------------------------------------------------

     CUMULATIVE VOLUMES      L**3       RATES FOR THIS TIME STEP      L**3/T
     ------------------                 ------------------------

           IN:                                      IN:
           ---                                      ---
             STORAGE =       6.1801E-05               STORAGE =       5.2794E-03
       CONSTANT HEAD =       5.3670E-04         CONSTANT HEAD =           0.1589
               WELLS =           0.0000                 WELLS =           0.0000
          SWIADDTOCH =           0.0000            SWIADDTOCH =           0.0000

            TOTAL IN =       5.9850E-04              TOTAL IN =           0.1642

          OUT:                                     OUT:
          ----                                     ----
             STORAGE =           0.0000               STORAGE =           0.0000
       CONSTANT HEAD =           0.0000         CONSTANT HEAD =           0.0000
               WELLS =       5.9850E-04                 WELLS =           0.1642
          SWIADDTOCH =           0.0000            SWIADDTOCH =           0.0000

           TOTAL OUT =       5.9850E-04             TOTAL OUT =           0.1642

            IN - OUT =      -1.3388E-09              IN - OUT =      -5.9605E-08

 PERCENT DISCREPANCY =          -0.00     PERCENT DISCREPANCY =          -0.00






         TIME SUMMARY AT END OF TIME STEP    3 IN STRESS PERIOD    1
                    SECONDS     MINUTES      HOURS       DAYS        YEARS
                    -----------------------------------------------------------
   TIME STEP LENGTH  105.00      1.7500     2.91667E-02 1.21528E-03 3.32726E-06
 STRESS PERIOD TIME  315.00      5.2500     8.75002E-02 3.64584E-03 9.98177E-06
         TOTAL TIME  315.00      5.2500     8.75002E-02 3.64584E-03 9.98177E-06
1

 SOLVING FOR HEAD 
     2 EXTERNAL ITERATIONS FOR TIME STEP   4 IN STRESS PERIOD    1

 MAXIMUM HEAD CHANGE FOR EACH ITERATION:

     HEAD CHANGE  LAY,ROW,COL      HEAD CHANGE  LAY,ROW,COL  
 ------------------------------------------------------------
    -3.767E-04 (  1,    1, 1000)  -6.008E-06 (  1,    1, 1000)



 OUTPUT CONTROL FOR STRESS PERIOD    1   TIME STEP    4
    PRINT BUDGET
    SAVE HEAD FOR ALL LAYERS
 SOLVING FOR ZETA FOR LAYER     6 ZONE     2

     496 UPPER PART EQS.       497 LOWER PART EQS.    BAND WIDTH + 1 =    2
 STRESS PERIOD=  1 TIMESTEP=  4 LAYER=  6 ZONE=  2 ACTIVE CELLS=  993 NUMBER OF EQUATIONS=     993
 UBUDSV SAVING "      ZETASRF  1" ON UNIT 55 AT TIME STEP  4, STRESS PERIOD    1


                      VOLUMETRIC SWI ZONE BUDGET FOR ENTIRE MODEL
                     AT END OF TIME STEP    4 IN STRESS PERIOD   1
                                      ZONE     1
  -----------------------------------------------------------------------------------

        CUMULATIVE VOLUMES      L**3       RATES FOR THIS TIME STEP      L**3/T
        ------------------                 ------------------------

              IN:                                      IN:
              ---                                      ---
             BOUNDARIES =       8.1488E-10            BOUNDARIES =       1.7595E-07
          CONSTANT HEAD =       6.7202E-04         CONSTANT HEAD =           0.1491
            ZONE CHANGE =       1.1136E-04           ZONE CHANGE =       1.5101E-02
       ZONE CHG TIP/TOE =       1.4641E-05      ZONE CHG TIP/TOE =       3.5792E-06
            ZONE MIXING =           0.0000           ZONE MIXING =           0.0000

               TOTAL IN =       7.9802E-04              TOTAL IN =           0.1642

             OUT:                                     OUT:
             ----                                     ----
             BOUNDARIES =       7.9800E-04            BOUNDARIES =           0.1642
          CONSTANT HEAD =           0.0000         CONSTANT HEAD =           0.0000
            ZONE CHANGE =       1.4602E-08           ZONE CHANGE =       7.0406E-06
       ZONE CHG TIP/TOE =       1.4518E-12      ZONE CHG TIP/TOE =       1.1946E-09
            ZONE MIXING =           0.0000           ZONE MIXING =           0.0000

              TOTAL OUT =       7.9802E-04             TOTAL OUT =           0.1642

               IN - OUT =       4.1910E-09              IN - OUT =       1.7434E-06

    PERCENT DISCREPANCY =           0.00     PERCENT DISCREPANCY =           0.00



                      VOLUMETRIC SWI ZONE BUDGET FOR ENTIRE MODEL
                     AT END OF TIME STEP    4 IN STRESS PERIOD   1
                                      ZONE     2
  -----------------------------------------------------------------------------------

        CUMULATIVE VOLUMES      L**3       RATES FOR THIS TIME STEP      L**3/T
        ------------------                 ------------------------

              IN:                                      IN:
              ---                                      ---
             BOUNDARIES =       3.2699E-15            BOUNDARIES =       6.6694E-13
          CONSTANT HEAD =       6.1601E-05         CONSTANT HEAD =       1.2970E-02
            ZONE CHANGE =       9.5153E-09           ZONE CHANGE =       4.7327E-06
       ZONE CHG TIP/TOE =       1.4518E-12      ZONE CHG TIP/TOE =       1.1946E-09
            ZONE MIXING =           0.0000           ZONE MIXING =           0.0000

               TOTAL IN =       6.1610E-05              TOTAL IN =       1.2974E-02

             OUT:                                     OUT:
             ----                                     ----
             BOUNDARIES =       3.1478E-15            BOUNDARIES =       6.1075E-13
          CONSTANT HEAD =           0.0000         CONSTANT HEAD =           0.0000
            ZONE CHANGE =       4.6980E-05           ZONE CHANGE =       1.2975E-02
       ZONE CHG TIP/TOE =       1.4636E-05      ZONE CHG TIP/TOE =       1.2712E-06
            ZONE MIXING =           0.0000           ZONE MIXING =           0.0000

              TOTAL OUT =       6.1615E-05             TOTAL OUT =       1.2976E-02

               IN - OUT =      -4.7658E-09              IN - OUT =      -2.0638E-06

    PERCENT DISCREPANCY =          -0.01     PERCENT DISCREPANCY =          -0.02


 HEAD WILL BE SAVED ON UNIT   51 AT END OF TIME STEP    4, STRESS PERIOD    1
1
  VOLUMETRIC BUDGET FOR ENTIRE MODEL AT END OF TIME STEP    4, STRESS PERIOD   1
  ------------------------------------------------------------------------------

     CUMULATIVE VOLUMES      L**3       RATES FOR THIS TIME STEP      L**3/T
     ------------------                 ------------------------

           IN:                                      IN:
           ---                                      ---
             STORAGE =       6.4383E-05               STORAGE =       2.1252E-03
       CONSTANT HEAD =       7.3362E-04         CONSTANT HEAD =           0.1620
               WELLS =           0.0000                 WELLS =           0.0000
          SWIADDTOCH =           0.0000            SWIADDTOCH =           0.0000

            TOTAL IN =       7.9800E-04              TOTAL IN =           0.1642

          OUT:                                     OUT:
          ----                                     ----
             STORAGE =           0.0000               STORAGE =           0.0000
       CONSTANT HEAD =           0.0000         CONSTANT HEAD =           0.0000
               WELLS =       7.9800E-04                 WELLS =           0.1642
          SWIADDTOCH =           0.0000            SWIADDTOCH =           0.0000

           TOTAL OUT =       7.9800E-04             TOTAL OUT =           0.1642

            IN - OUT =      -2.0373E-09              IN - OUT =      -6.2585E-07

 PERCENT DISCREPANCY =          -0.00     PERCENT DISCREPANCY =          -0.00






         TIME SUMMARY AT END OF TIME STEP    4 IN STRESS PERIOD    1
                    SECONDS     MINUTES      HOURS       DAYS        YEARS
                    -----------------------------------------------------------
   TIME STEP LENGTH  105.00      1.7500     2.91667E-02 1.21528E-03 3.32726E-06
 STRESS PERIOD TIME  420.00      7.0000     0.11667     4.86112E-03 1.33090E-05
         TOTAL TIME  420.00      7.0000     0.11667     4.86112E-03 1.33090E-05
1

 SOLVING FOR HEAD 
     2 EXTERNAL ITERATIONS FOR TIME STEP   5 IN STRESS PERIOD    1

 MAXIMUM HEAD CHANGE FOR EACH ITERATION:

     HEAD CHANGE  LAY,ROW,COL      HEAD CHANGE  LAY,ROW,COL  
 ------------------------------------------------------------
    -1.525E-04 (  1,    1, 1000)  -2.309E-06 (  1,    1, 1000)



 OUTPUT CONTROL FOR STRESS PERIOD    1   TIME STEP    5
    PRINT BUDGET
    SAVE HEAD FOR ALL LAYERS
 SOLVING FOR ZETA FOR LAYER     6 ZONE     2

     495 UPPER PART EQS.       495 LOWER PART EQS.    BAND WIDTH + 1 =    2
 STRESS PERIOD=  1 TIMESTEP=  5 LAYER=  6 ZONE=  2 ACTIVE CELLS=  990 NUMBER OF EQUATIONS=     990
 UBUDSV SAVING "      ZETASRF  1" ON UNIT 55 AT TIME STEP  5, STRESS PERIOD    1


                      VOLUMETRIC SWI ZONE BUDGET FOR ENTIRE MODEL
                     AT END OF TIME STEP    5 IN STRESS PERIOD   1
                                      ZONE     1
  -----------------------------------------------------------------------------------

        CUMULATIVE VOLUMES      L**3       RATES FOR THIS TIME STEP      L**3/T
        ------------------                 ------------------------

              IN:                                      IN:
              ---                                      ---
             BOUNDARIES =       9.8744E-10            BOUNDARIES =       1.4199E-07
          CONSTANT HEAD =       8.5477E-04         CONSTANT HEAD =           0.1504
            ZONE CHANGE =       1.2812E-04           ZONE CHANGE =       1.3790E-02
       ZONE CHG TIP/TOE =       1.4649E-05      ZONE CHG TIP/TOE =       6.4490E-06
            ZONE MIXING =           0.0000           ZONE MIXING =           0.0000

               TOTAL IN =       9.9754E-04              TOTAL IN =           0.1642

             OUT:                                     OUT:
             ----                                     ----
             BOUNDARIES =       9.9750E-04            BOUNDARIES =           0.1642
          CONSTANT HEAD =           0.0000         CONSTANT HEAD =           0.0000
            ZONE CHANGE =       3.0534E-08           ZONE CHANGE =       1.3110E-05
       ZONE CHG TIP/TOE =       1.8841E-10      ZONE CHG TIP/TOE =       1.5384E-07
            ZONE MIXING =           0.0000           ZONE MIXING =           0.0000

              TOTAL OUT =       9.9753E-04             TOTAL OUT =           0.1642

               IN - OUT =       8.3819E-09              IN - OUT =       3.4869E-06

    PERCENT DISCREPANCY =           0.00     PERCENT DISCREPANCY =           0.00



                      VOLUMETRIC SWI ZONE BUDGET FOR ENTIRE MODEL
                     AT END OF TIME STEP    5 IN STRESS PERIOD   1
                                      ZONE     2
  -----------------------------------------------------------------------------------

        CUMULATIVE VOLUMES      L**3       RATES FOR THIS TIME STEP      L**3/T
        ------------------                 ------------------------

              IN:                                      IN:
              ---                                      ---
             BOUNDARIES =       4.0198E-15            BOUNDARIES =       6.1702E-13
          CONSTANT HEAD =       7.7301E-05         CONSTANT HEAD =       1.2919E-02
            ZONE CHANGE =       2.0488E-08           ZONE CHANGE =       9.0291E-06
       ZONE CHG TIP/TOE =       1.8841E-10      ZONE CHG TIP/TOE =       1.5384E-07
            ZONE MIXING =           0.0000           ZONE MIXING =           0.0000

               TOTAL IN =       7.7322E-05              TOTAL IN =       1.2928E-02

             OUT:                                     OUT:
             ----                                     ----
             BOUNDARIES =       3.9588E-15            BOUNDARIES =       6.6735E-13
          CONSTANT HEAD =           0.0000         CONSTANT HEAD =           0.0000
            ZONE CHANGE =       6.2692E-05           ZONE CHANGE =       1.2929E-02
       ZONE CHG TIP/TOE =       1.4638E-05      ZONE CHG TIP/TOE =       2.3682E-06
            ZONE MIXING =           0.0000           ZONE MIXING =           0.0000

              TOTAL OUT =       7.7331E-05             TOTAL OUT =       1.2932E-02

               IN - OUT =      -8.9640E-09              IN - OUT =      -3.4524E-06

    PERCENT DISCREPANCY =          -0.01     PERCENT DISCREPANCY =          -0.03


 HEAD WILL BE SAVED ON UNIT   51 AT END OF TIME STEP    5, STRESS PERIOD    1
1
  VOLUMETRIC BUDGET FOR ENTIRE MODEL AT END OF TIME STEP    5, STRESS PERIOD   1
  ------------------------------------------------------------------------------

     CUMULATIVE VOLUMES      L**3       RATES FOR THIS TIME STEP      L**3/T
     ------------------                 ------------------------

           IN:                                      IN:
           ---                                      ---
             STORAGE =       6.5429E-05               STORAGE =       8.6033E-04
       CONSTANT HEAD =       9.3207E-04         CONSTANT HEAD =           0.1633
               WELLS =           0.0000                 WELLS =           0.0000
          SWIADDTOCH =           0.0000            SWIADDTOCH =           0.0000

            TOTAL IN =       9.9750E-04              TOTAL IN =           0.1642

          OUT:                                     OUT:
          ----                                     ----
             STORAGE =       5.6398E-13               STORAGE =       4.6408E-10
       CONSTANT HEAD =           0.0000         CONSTANT HEAD =           0.0000
               WELLS =       9.9750E-04                 WELLS =           0.1642
          SWIADDTOCH =           0.0000            SWIADDTOCH =           0.0000

           TOTAL OUT =       9.9750E-04             TOTAL OUT =           0.1642

            IN - OUT =      -2.4447E-09              IN - OUT =      -2.3842E-07

 PERCENT DISCREPANCY =          -0.00     PERCENT DISCREPANCY =          -0.00






         TIME SUMMARY AT END OF TIME STEP    5 IN STRESS PERIOD    1
                    SECONDS     MINUTES      HOURS       DAYS        YEARS
                    -----------------------------------------------------------
   TIME STEP LENGTH  105.00      1.7500     2.91667E-02 1.21528E-03 3.32726E-06
 STRESS PERIOD TIME  525.00      8.7500     0.14583     6.07640E-03 1.66363E-05
         TOTAL TIME  525.00      8.7500     0.14583     6.07640E-03 1.66363E-05
1

 SOLVING FOR HEAD 
     2 EXTERNAL ITERATIONS FOR TIME STEP   6 IN STRESS PERIOD    1

 MAXIMUM HEAD CHANGE FOR EACH ITERATION:

     HEAD CHANGE  LAY,ROW,COL      HEAD CHANGE  LAY,ROW,COL  
 ------------------------------------------------------------
    -6.267E-05 (  1,    1, 1000)  -9.750E-07 (  1,    1, 1000)



 OUTPUT CONTROL FOR STRESS PERIOD    1   TIME STEP    6
    PRINT BUDGET
    SAVE HEAD FOR ALL LAYERS
 SOLVING FOR ZETA FOR LAYER     6 ZONE     2

     495 UPPER PART EQS.       496 LOWER PART EQS.    BAND WIDTH + 1 =    3
 STRESS PERIOD=  1 TIMESTEP=  6 LAYER=  6 ZONE=  2 ACTIVE CELLS=  991 NUMBER OF EQUATIONS=     991
 UBUDSV SAVING "      ZETASRF  1" ON UNIT 55 AT TIME STEP  6, STRESS PERIOD    1


                      VOLUMETRIC SWI ZONE BUDGET FOR ENTIRE MODEL
                     AT END OF TIME STEP    6 IN STRESS PERIOD   1
                                      ZONE     1
  -----------------------------------------------------------------------------------

        CUMULATIVE VOLUMES      L**3       RATES FOR THIS TIME STEP      L**3/T
        ------------------                 ------------------------

              IN:                                      IN:
              ---                                      ---
             BOUNDARIES =       1.1902E-09            BOUNDARIES =       1.6681E-07
          CONSTANT HEAD =       1.0382E-03         CONSTANT HEAD =           0.1510
            ZONE CHANGE =       1.4418E-04           ZONE CHANGE =       1.3210E-02
       ZONE CHG TIP/TOE =       1.4660E-05      ZONE CHG TIP/TOE =       9.2650E-06
            ZONE MIXING =           0.0000           ZONE MIXING =           0.0000

               TOTAL IN =       1.1971E-03              TOTAL IN =           0.1642

             OUT:                                     OUT:
             ----                                     ----
             BOUNDARIES =       1.1970E-03            BOUNDARIES =           0.1642
          CONSTANT HEAD =           0.0000         CONSTANT HEAD =           0.0000
            ZONE CHANGE =       5.4966E-08           ZONE CHANGE =       2.0104E-05
       ZONE CHG TIP/TOE =       1.9422E-10      ZONE CHG TIP/TOE =       4.7784E-09
            ZONE MIXING =           0.0000           ZONE MIXING =           0.0000

              TOTAL OUT =       1.1971E-03             TOTAL OUT =           0.1642

               IN - OUT =       1.5483E-08              IN - OUT =       5.8860E-06

    PERCENT DISCREPANCY =           0.00     PERCENT DISCREPANCY =           0.00



                      VOLUMETRIC SWI ZONE BUDGET FOR ENTIRE MODEL
                     AT END OF TIME STEP    6 IN STRESS PERIOD   1
                                      ZONE     2
  -----------------------------------------------------------------------------------

        CUMULATIVE VOLUMES      L**3       RATES FOR THIS TIME STEP      L**3/T
        ------------------                 ------------------------

              IN:                                      IN:
              ---                                      ---
             BOUNDARIES =       4.8565E-15            BOUNDARIES =       6.8845E-13
          CONSTANT HEAD =       9.2905E-05         CONSTANT HEAD =       1.2840E-02
            ZONE CHANGE =       3.6668E-08           ZONE CHANGE =       1.3314E-05
       ZONE CHG TIP/TOE =       1.9422E-10      ZONE CHG TIP/TOE =       4.7784E-09
            ZONE MIXING =           0.0000           ZONE MIXING =           0.0000

               TOTAL IN =       9.2942E-05              TOTAL IN =       1.2853E-02

             OUT:                                     OUT:
             ----                                     ----
             BOUNDARIES =       4.7390E-15            BOUNDARIES =       6.4198E-13
          CONSTANT HEAD =           0.0000         CONSTANT HEAD =           0.0000
            ZONE CHANGE =       7.8317E-05           ZONE CHANGE =       1.2857E-02
       ZONE CHG TIP/TOE =       1.4641E-05      ZONE CHG TIP/TOE =       2.4750E-06
            ZONE MIXING =           0.0000           ZONE MIXING =           0.0000

              TOTAL OUT =       9.2958E-05             TOTAL OUT =       1.2859E-02

               IN - OUT =      -1.5898E-08              IN - OUT =      -5.7137E-06

    PERCENT DISCREPANCY =          -0.02     PERCENT DISCREPANCY =          -0.04


 HEAD WILL BE SAVED ON UNIT   51 AT END OF TIME STEP    6, STRESS PERIOD    1
1
  VOLUMETRIC BUDGET FOR ENTIRE MODEL AT END OF TIME STEP    6, STRESS PERIOD   1
  ------------------------------------------------------------------------------

     CUMULATIVE VOLUMES      L**3       RATES FOR THIS TIME STEP      L**3/T
     ------------------                 ------------------------

           IN:                                      IN:
           ---                                      ---
             STORAGE =       6.5859E-05               STORAGE =       3.5348E-04
       CONSTANT HEAD =       1.1311E-03         CONSTANT HEAD =           0.1638
               WELLS =           0.0000                 WELLS =           0.0000
          SWIADDTOCH =           0.0000            SWIADDTOCH =           0.0000

            TOTAL IN =       1.1970E-03              TOTAL IN =           0.1642

          OUT:                                     OUT:
          ----                                     ----
             STORAGE =       1.3810E-12               STORAGE =       6.7230E-10
       CONSTANT HEAD =           0.0000         CONSTANT HEAD =           0.0000
               WELLS =       1.1970E-03                 WELLS =           0.1642
          SWIADDTOCH =           0.0000            SWIADDTOCH =           0.0000

           TOTAL OUT =       1.1970E-03             TOTAL OUT =           0.1642

            IN - OUT =      -2.4447E-09              IN - OUT =      -1.3411E-07

 PERCENT DISCREPANCY =          -0.00     PERCENT DISCREPANCY =          -0.00






         TIME SUMMARY AT END OF TIME STEP    6 IN STRESS PERIOD    1
                    SECONDS     MINUTES      HOURS       DAYS        YEARS
                    -----------------------------------------------------------
   TIME STEP LENGTH  105.00      1.7500     2.91667E-02 1.21528E-03 3.32726E-06
 STRESS PERIOD TIME  630.00      10.500     0.17500     7.29168E-03 1.99635E-05
         TOTAL TIME  630.00      10.500     0.17500     7.29168E-03 1.99635E-05
1

 SOLVING FOR HEAD 
     2 EXTERNAL ITERATIONS FOR TIME STEP   7 IN STRESS PERIOD    1

 MAXIMUM HEAD CHANGE FOR EACH ITERATION:

     HEAD CHANGE  LAY,ROW,COL      HEAD CHANGE  LAY,ROW,COL  
 ------------------------------------------------------------
     3.692E-05 (  7,    1, 1000)  -4.168E-07 (  1,    1, 1000)



 OUTPUT CONTROL FOR STRESS PERIOD    1   TIME STEP    7
    PRINT BUDGET
    SAVE HEAD FOR ALL LAYERS
 SOLVING FOR ZETA FOR LAYER     6 ZONE     2

     493 UPPER PART EQS.       495 LOWER PART EQS.    BAND WIDTH + 1 =    3
 STRESS PERIOD=  1 TIMESTEP=  7 LAYER=  6 ZONE=  2 ACTIVE CELLS=  988 NUMBER OF EQUATIONS=     988
 UBUDSV SAVING "      ZETASRF  1" ON UNIT 55 AT TIME STEP  7, STRESS PERIOD    1


                      VOLUMETRIC SWI ZONE BUDGET FOR ENTIRE MODEL
                     AT END OF TIME STEP    7 IN STRESS PERIOD   1
                                      ZONE     1
  -----------------------------------------------------------------------------------

        CUMULATIVE VOLUMES      L**3       RATES FOR THIS TIME STEP      L**3/T
        ------------------                 ------------------------

              IN:                                      IN:
              ---                                      ---
             BOUNDARIES =       1.3926E-09            BOUNDARIES =       1.6661E-07
          CONSTANT HEAD =       1.2221E-03         CONSTANT HEAD =           0.1513
            ZONE CHANGE =       1.5989E-04           ZONE CHANGE =       1.2928E-02
       ZONE CHG TIP/TOE =       1.4677E-05      ZONE CHG TIP/TOE =       1.4232E-05
            ZONE MIXING =           0.0000           ZONE MIXING =           0.0000

               TOTAL IN =       1.3966E-03              TOTAL IN =           0.1642

             OUT:                                     OUT:
             ----                                     ----
             BOUNDARIES =       1.3965E-03            BOUNDARIES =           0.1642
          CONSTANT HEAD =           0.0000         CONSTANT HEAD =           0.0000
            ZONE CHANGE =       9.3825E-08           ZONE CHANGE =       3.1975E-05
       ZONE CHG TIP/TOE =       9.0204E-10      ZONE CHG TIP/TOE =       5.8244E-07
            ZONE MIXING =           0.0000           ZONE MIXING =           0.0000

              TOTAL OUT =       1.3966E-03             TOTAL OUT =           0.1642

               IN - OUT =       2.5379E-08              IN - OUT =       8.1807E-06

    PERCENT DISCREPANCY =           0.00     PERCENT DISCREPANCY =           0.00



                      VOLUMETRIC SWI ZONE BUDGET FOR ENTIRE MODEL
                     AT END OF TIME STEP    7 IN STRESS PERIOD   1
                                      ZONE     2
  -----------------------------------------------------------------------------------

        CUMULATIVE VOLUMES      L**3       RATES FOR THIS TIME STEP      L**3/T
        ------------------                 ------------------------

              IN:                                      IN:
              ---                                      ---
             BOUNDARIES =       5.6537E-15            BOUNDARIES =       6.5605E-13
          CONSTANT HEAD =       1.0840E-04         CONSTANT HEAD =       1.2751E-02
            ZONE CHANGE =       6.3956E-08           ZONE CHANGE =       2.2454E-05
       ZONE CHG TIP/TOE =       9.0204E-10      ZONE CHG TIP/TOE =       5.8244E-07
            ZONE MIXING =           0.0000           ZONE MIXING =           0.0000

               TOTAL IN =       1.0847E-04              TOTAL IN =       1.2774E-02

             OUT:                                     OUT:
             ----                                     ----
             BOUNDARIES =       5.5174E-15            BOUNDARIES =       6.4051E-13
          CONSTANT HEAD =           0.0000         CONSTANT HEAD =           0.0000
            ZONE CHANGE =       9.3845E-05           ZONE CHANGE =       1.2777E-02
       ZONE CHG TIP/TOE =       1.4647E-05      ZONE CHG TIP/TOE =       4.7101E-06
            ZONE MIXING =           0.0000           ZONE MIXING =           0.0000

              TOTAL OUT =       1.0849E-04             TOTAL OUT =       1.2782E-02

               IN - OUT =      -2.5575E-08              IN - OUT =      -7.9609E-06

    PERCENT DISCREPANCY =          -0.02     PERCENT DISCREPANCY =          -0.06


 HEAD WILL BE SAVED ON UNIT   51 AT END OF TIME STEP    7, STRESS PERIOD    1
1
  VOLUMETRIC BUDGET FOR ENTIRE MODEL AT END OF TIME STEP    7, STRESS PERIOD   1
  ------------------------------------------------------------------------------

     CUMULATIVE VOLUMES      L**3       RATES FOR THIS TIME STEP      L**3/T
     ------------------                 ------------------------

           IN:                                      IN:
           ---                                      ---
             STORAGE =       6.6042E-05               STORAGE =       1.5058E-04
       CONSTANT HEAD =       1.3305E-03         CONSTANT HEAD =           0.1640
               WELLS =           0.0000                 WELLS =           0.0000
          SWIADDTOCH =           0.0000            SWIADDTOCH =           0.0000

            TOTAL IN =       1.3965E-03              TOTAL IN =           0.1642

          OUT:                                     OUT:
          ----                                     ----
             STORAGE =       3.4266E-12               STORAGE =       1.6832E-09
       CONSTANT HEAD =           0.0000         CONSTANT HEAD =           0.0000
               WELLS =       1.3965E-03                 WELLS =           0.1642
          SWIADDTOCH =           0.0000            SWIADDTOCH =           0.0000

           TOTAL OUT =       1.3965E-03             TOTAL OUT =           0.1642

            IN - OUT =      -2.5611E-09              IN - OUT =      -7.4506E-08

 PERCENT DISCREPANCY =          -0.00     PERCENT DISCREPANCY =          -0.00






         TIME SUMMARY AT END OF TIME STEP    7 IN STRESS PERIOD    1
                    SECONDS     MINUTES      HOURS       DAYS        YEARS
                    -----------------------------------------------------------
   TIME STEP LENGTH  105.00      1.7500     2.91667E-02 1.21528E-03 3.32726E-06
 STRESS PERIOD TIME  735.00      12.250     0.20417     8.50696E-03 2.32908E-05
         TOTAL TIME  735.00      12.250     0.20417     8.50696E-03 2.32908E-05
1

 SOLVING FOR HEAD 
     2 EXTERNAL ITERATIONS FOR TIME STEP   8 IN STRESS PERIOD    1

 MAXIMUM HEAD CHANGE FOR EACH ITERATION:

     HEAD CHANGE  LAY,ROW,COL      HEAD CHANGE  LAY,ROW,COL  
 ------------------------------------------------------------
     3.833E-05 (  7,    1, 1000)  -2.074E-07 (  1,    1, 1000)



 OUTPUT CONTROL FOR STRESS PERIOD    1   TIME STEP    8
    PRINT BUDGET
    SAVE HEAD FOR ALL LAYERS
 SOLVING FOR ZETA FOR LAYER     6 ZONE     2

     496 UPPER PART EQS.       494 LOWER PART EQS.    BAND WIDTH + 1 =    4
 STRESS PERIOD=  1 TIMESTEP=  8 LAYER=  6 ZONE=  2 ACTIVE CELLS=  990 NUMBER OF EQUATIONS=     990
 UBUDSV SAVING "      ZETASRF  1" ON UNIT 55 AT TIME STEP  8, STRESS PERIOD    1


                      VOLUMETRIC SWI ZONE BUDGET FOR ENTIRE MODEL
                     AT END OF TIME STEP    8 IN STRESS PERIOD   1
                                      ZONE     1
  -----------------------------------------------------------------------------------

        CUMULATIVE VOLUMES      L**3       RATES FOR THIS TIME STEP      L**3/T
        ------------------                 ------------------------

              IN:                                      IN:
              ---                                      ---
             BOUNDARIES =       1.5907E-09            BOUNDARIES =       1.6299E-07
          CONSTANT HEAD =       1.4061E-03         CONSTANT HEAD =           0.1514
            ZONE CHANGE =       1.7541E-04           ZONE CHANGE =       1.2772E-02
       ZONE CHG TIP/TOE =       1.4702E-05      ZONE CHG TIP/TOE =       2.0175E-05
            ZONE MIXING =           0.0000           ZONE MIXING =           0.0000

               TOTAL IN =       1.5962E-03              TOTAL IN =           0.1642

             OUT:                                     OUT:
             ----                                     ----
             BOUNDARIES =       1.5960E-03            BOUNDARIES =           0.1642
          CONSTANT HEAD =           0.0000         CONSTANT HEAD =           0.0000
            ZONE CHANGE =       1.5328E-07           ZONE CHANGE =       4.8923E-05
       ZONE CHG TIP/TOE =       2.2374E-09      ZONE CHG TIP/TOE =       1.0988E-06
            ZONE MIXING =           0.0000           ZONE MIXING =           0.0000

              TOTAL OUT =       1.5962E-03             TOTAL OUT =           0.1642

               IN - OUT =       4.1677E-08              IN - OUT =       1.3396E-05

    PERCENT DISCREPANCY =           0.00     PERCENT DISCREPANCY =           0.01



                      VOLUMETRIC SWI ZONE BUDGET FOR ENTIRE MODEL
                     AT END OF TIME STEP    8 IN STRESS PERIOD   1
                                      ZONE     2
  -----------------------------------------------------------------------------------

        CUMULATIVE VOLUMES      L**3       RATES FOR THIS TIME STEP      L**3/T
        ------------------                 ------------------------

              IN:                                      IN:
              ---                                      ---
             BOUNDARIES =       6.4164E-15            BOUNDARIES =       6.2753E-13
          CONSTANT HEAD =       1.2379E-04         CONSTANT HEAD =       1.2660E-02
            ZONE CHANGE =       1.0423E-07           ZONE CHANGE =       3.3140E-05
       ZONE CHG TIP/TOE =       2.2374E-09      ZONE CHG TIP/TOE =       1.0988E-06
            ZONE MIXING =           0.0000           ZONE MIXING =           0.0000

               TOTAL IN =       1.2389E-04              TOTAL IN =       1.2694E-02

             OUT:                                     OUT:
             ----                                     ----
             BOUNDARIES =       6.3399E-15            BOUNDARIES =       6.7677E-13
          CONSTANT HEAD =           0.0000         CONSTANT HEAD =           0.0000
            ZONE CHANGE =       1.0928E-04           ZONE CHANGE =       1.2703E-02
       ZONE CHG TIP/TOE =       1.4652E-05      ZONE CHG TIP/TOE =       4.3911E-06
            ZONE MIXING =           0.0000           ZONE MIXING =           0.0000

              TOTAL OUT =       1.2393E-04             TOTAL OUT =       1.2707E-02

               IN - OUT =      -4.1560E-08              IN - OUT =      -1.3153E-05

    PERCENT DISCREPANCY =          -0.03     PERCENT DISCREPANCY =          -0.10


 HEAD WILL BE SAVED ON UNIT   51 AT END OF TIME STEP    8, STRESS PERIOD    1
1
  VOLUMETRIC BUDGET FOR ENTIRE MODEL AT END OF TIME STEP    8, STRESS PERIOD   1
  ------------------------------------------------------------------------------

     CUMULATIVE VOLUMES      L**3       RATES FOR THIS TIME STEP      L**3/T
     ------------------                 ------------------------

           IN:                                      IN:
           ---                                      ---
             STORAGE =       6.6126E-05               STORAGE =       6.9416E-05
       CONSTANT HEAD =       1.5299E-03         CONSTANT HEAD =           0.1641
               WELLS =           0.0000                 WELLS =           0.0000
          SWIADDTOCH =           0.0000            SWIADDTOCH =           0.0000

            TOTAL IN =       1.5960E-03              TOTAL IN =           0.1642

          OUT:                                     OUT:
          ----                                     ----
             STORAGE =       5.5062E-12               STORAGE =       1.7112E-09
       CONSTANT HEAD =           0.0000         CONSTANT HEAD =           0.0000
               WELLS =       1.5960E-03                 WELLS =           0.1642
          SWIADDTOCH =           0.0000            SWIADDTOCH =           0.0000

           TOTAL OUT =       1.5960E-03             TOTAL OUT =           0.1642

            IN - OUT =      -2.6776E-09              IN - OUT =      -5.9605E-08

 PERCENT DISCREPANCY =          -0.00     PERCENT DISCREPANCY =          -0.00






         TIME SUMMARY AT END OF TIME STEP    8 IN STRESS PERIOD    1
                    SECONDS     MINUTES      HOURS       DAYS        YEARS
                    -----------------------------------------------------------
   TIME STEP LENGTH  105.00      1.7500     2.91667E-02 1.21528E-03 3.32726E-06
 STRESS PERIOD TIME  840.00      14.000     0.23333     9.72224E-03 2.66180E-05
         TOTAL TIME  840.00      14.000     0.23333     9.72224E-03 2.66180E-05
1

 SOLVING FOR HEAD 
     2 EXTERNAL ITERATIONS FOR TIME STEP   9 IN STRESS PERIOD    1

 MAXIMUM HEAD CHANGE FOR EACH ITERATION:

     HEAD CHANGE  LAY,ROW,COL      HEAD CHANGE  LAY,ROW,COL  
 ------------------------------------------------------------
     3.882E-05 (  7,    1, 1000)  -1.748E-07 (  6,    1, 1000)



 OUTPUT CONTROL FOR STRESS PERIOD    1   TIME STEP    9
    PRINT BUDGET
    SAVE HEAD FOR ALL LAYERS
 SOLVING FOR ZETA FOR LAYER     6 ZONE     2

     493 UPPER PART EQS.       494 LOWER PART EQS.    BAND WIDTH + 1 =    3
 STRESS PERIOD=  1 TIMESTEP=  9 LAYER=  6 ZONE=  2 ACTIVE CELLS=  987 NUMBER OF EQUATIONS=     987
 UBUDSV SAVING "      ZETASRF  1" ON UNIT 55 AT TIME STEP  9, STRESS PERIOD    1


                      VOLUMETRIC SWI ZONE BUDGET FOR ENTIRE MODEL
                     AT END OF TIME STEP    9 IN STRESS PERIOD   1
                                      ZONE     1
  -----------------------------------------------------------------------------------

        CUMULATIVE VOLUMES      L**3       RATES FOR THIS TIME STEP      L**3/T
        ------------------                 ------------------------

              IN:                                      IN:
              ---                                      ---
             BOUNDARIES =       1.7945E-09            BOUNDARIES =       1.6772E-07
          CONSTANT HEAD =       1.5903E-03         CONSTANT HEAD =           0.1516
            ZONE CHANGE =       1.9080E-04           ZONE CHANGE =       1.2666E-02
       ZONE CHG TIP/TOE =       1.4734E-05      ZONE CHG TIP/TOE =       2.6767E-05
            ZONE MIXING =           0.0000           ZONE MIXING =           0.0000

               TOTAL IN =       1.7958E-03              TOTAL IN =           0.1642

             OUT:                                     OUT:
             ----                                     ----
             BOUNDARIES =       1.7955E-03            BOUNDARIES =           0.1642
          CONSTANT HEAD =           0.0000         CONSTANT HEAD =           0.0000
            ZONE CHANGE =       2.3708E-07           ZONE CHANGE =       6.8954E-05
       ZONE CHG TIP/TOE =       2.5637E-09      ZONE CHG TIP/TOE =       2.6852E-07
            ZONE MIXING =           0.0000           ZONE MIXING =           0.0000

              TOTAL OUT =       1.7957E-03             TOTAL OUT =           0.1642

               IN - OUT =       6.4145E-08              IN - OUT =       1.8477E-05

    PERCENT DISCREPANCY =           0.00     PERCENT DISCREPANCY =           0.01



                      VOLUMETRIC SWI ZONE BUDGET FOR ENTIRE MODEL
                     AT END OF TIME STEP    9 IN STRESS PERIOD   1
                                      ZONE     2
  -----------------------------------------------------------------------------------

        CUMULATIVE VOLUMES      L**3       RATES FOR THIS TIME STEP      L**3/T
        ------------------                 ------------------------

              IN:                                      IN:
              ---                                      ---
             BOUNDARIES =       7.1618E-15            BOUNDARIES =       6.1340E-13
          CONSTANT HEAD =       1.3906E-04         CONSTANT HEAD =       1.2568E-02
            ZONE CHANGE =       1.6338E-07           ZONE CHANGE =       4.8672E-05
       ZONE CHG TIP/TOE =       2.5637E-09      ZONE CHG TIP/TOE =       2.6852E-07
            ZONE MIXING =           0.0000           ZONE MIXING =           0.0000

               TOTAL IN =       1.3923E-04              TOTAL IN =       1.2617E-02

             OUT:                                     OUT:
             ----                                     ----
             BOUNDARIES =       7.1824E-15            BOUNDARIES =       6.9325E-13
          CONSTANT HEAD =           0.0000         CONSTANT HEAD =           0.0000
            ZONE CHANGE =       1.2463E-04           ZONE CHANGE =       1.2629E-02
       ZONE CHG TIP/TOE =       1.4660E-05      ZONE CHG TIP/TOE =       6.4851E-06
            ZONE MIXING =           0.0000           ZONE MIXING =           0.0000

              TOTAL OUT =       1.3929E-04             TOTAL OUT =       1.2635E-02

               IN - OUT =      -6.3781E-08              IN - OUT =      -1.8268E-05

    PERCENT DISCREPANCY =          -0.05     PERCENT DISCREPANCY =          -0.14


 HEAD WILL BE SAVED ON UNIT   51 AT END OF TIME STEP    9, STRESS PERIOD    1
1
  VOLUMETRIC BUDGET FOR ENTIRE MODEL AT END OF TIME STEP    9, STRESS PERIOD   1
  ------------------------------------------------------------------------------

     CUMULATIVE VOLUMES      L**3       RATES FOR THIS TIME STEP      L**3/T
     ------------------                 ------------------------

           IN:                                      IN:
           ---                                      ---
             STORAGE =       6.6171E-05               STORAGE =       3.7062E-05
       CONSTANT HEAD =       1.7293E-03         CONSTANT HEAD =           0.1641
               WELLS =           0.0000                 WELLS =           0.0000
          SWIADDTOCH =           0.0000            SWIADDTOCH =           0.0000

            TOTAL IN =       1.7955E-03              TOTAL IN =           0.1642

          OUT:                                     OUT:
          ----                                     ----
             STORAGE =       8.7266E-12               STORAGE =       2.6499E-09
       CONSTANT HEAD =           0.0000         CONSTANT HEAD =           0.0000
               WELLS =       1.7955E-03                 WELLS =           0.1642
          SWIADDTOCH =           0.0000            SWIADDTOCH =           0.0000

           TOTAL OUT =       1.7955E-03             TOTAL OUT =           0.1642

            IN - OUT =      -2.6776E-09              IN - OUT =      -5.9605E-08

 PERCENT DISCREPANCY =          -0.00     PERCENT DISCREPANCY =          -0.00






         TIME SUMMARY AT END OF TIME STEP    9 IN STRESS PERIOD    1
                    SECONDS     MINUTES      HOURS       DAYS        YEARS
                    -----------------------------------------------------------
   TIME STEP LENGTH  105.00      1.7500     2.91667E-02 1.21528E-03 3.32726E-06
 STRESS PERIOD TIME  945.00      15.750     0.26250     1.09375E-02 2.99453E-05
         TOTAL TIME  945.00      15.750     0.26250     1.09375E-02 2.99453E-05
1

 SOLVING FOR HEAD 
     2 EXTERNAL ITERATIONS FOR TIME STEP  10 IN STRESS PERIOD    1

 MAXIMUM HEAD CHANGE FOR EACH ITERATION:

     HEAD CHANGE  LAY,ROW,COL      HEAD CHANGE  LAY,ROW,COL  
 ------------------------------------------------------------
     3.892E-05 (  7,    1, 1000)  -1.696E-07 (  6,    1,  999)



 OUTPUT CONTROL FOR STRESS PERIOD    1   TIME STEP   10
    PRINT BUDGET
    SAVE HEAD FOR ALL LAYERS
 SOLVING FOR ZETA FOR LAYER     6 ZONE     2

     493 UPPER PART EQS.       493 LOWER PART EQS.    BAND WIDTH + 1 =    3
 STRESS PERIOD=  1 TIMESTEP= 10 LAYER=  6 ZONE=  2 ACTIVE CELLS=  986 NUMBER OF EQUATIONS=     986
 UBUDSV SAVING "      ZETASRF  1" ON UNIT 55 AT TIME STEP 10, STRESS PERIOD    1


                      VOLUMETRIC SWI ZONE BUDGET FOR ENTIRE MODEL
                     AT END OF TIME STEP   10 IN STRESS PERIOD   1
                                      ZONE     1
  -----------------------------------------------------------------------------------

        CUMULATIVE VOLUMES      L**3       RATES FOR THIS TIME STEP      L**3/T
        ------------------                 ------------------------

              IN:                                      IN:
              ---                                      ---
             BOUNDARIES =       1.9918E-09            BOUNDARIES =       1.6228E-07
          CONSTANT HEAD =       1.7746E-03         CONSTANT HEAD =           0.1517
            ZONE CHANGE =       2.0609E-04           ZONE CHANGE =       1.2581E-02
       ZONE CHG TIP/TOE =       1.4769E-05      ZONE CHG TIP/TOE =       2.8766E-05
            ZONE MIXING =           0.0000           ZONE MIXING =           0.0000

               TOTAL IN =       1.9954E-03              TOTAL IN =           0.1643

             OUT:                                     OUT:
             ----                                     ----
             BOUNDARIES =       1.9950E-03            BOUNDARIES =           0.1642
          CONSTANT HEAD =           0.0000         CONSTANT HEAD =           0.0000
            ZONE CHANGE =       3.4571E-07           ZONE CHANGE =       8.9389E-05
       ZONE CHG TIP/TOE =       4.1897E-09      ZONE CHG TIP/TOE =       1.3380E-06
            ZONE MIXING =           0.0000           ZONE MIXING =           0.0000

              TOTAL OUT =       1.9954E-03             TOTAL OUT =           0.1643

               IN - OUT =       8.5449E-08              IN - OUT =       1.7464E-05

    PERCENT DISCREPANCY =           0.00     PERCENT DISCREPANCY =           0.01



                      VOLUMETRIC SWI ZONE BUDGET FOR ENTIRE MODEL
                     AT END OF TIME STEP   10 IN STRESS PERIOD   1
                                      ZONE     2
  -----------------------------------------------------------------------------------

        CUMULATIVE VOLUMES      L**3       RATES FOR THIS TIME STEP      L**3/T
        ------------------                 ------------------------

              IN:                                      IN:
              ---                                      ---
             BOUNDARIES =       7.9188E-15            BOUNDARIES =       6.2292E-13
          CONSTANT HEAD =       1.5422E-04         CONSTANT HEAD =       1.2477E-02
            ZONE CHANGE =       2.4658E-07           ZONE CHANGE =       6.8464E-05
       ZONE CHG TIP/TOE =       4.1897E-09      ZONE CHG TIP/TOE =       1.3380E-06
            ZONE MIXING =           0.0000           ZONE MIXING =           0.0000

               TOTAL IN =       1.5447E-04              TOTAL IN =       1.2547E-02

             OUT:                                     OUT:
             ----                                     ----
             BOUNDARIES =       7.9810E-15            BOUNDARIES =       6.5717E-13
          CONSTANT HEAD =           0.0000         CONSTANT HEAD =           0.0000
            ZONE CHANGE =       1.3989E-04           ZONE CHANGE =       1.2557E-02
       ZONE CHG TIP/TOE =       1.4670E-05      ZONE CHG TIP/TOE =       7.8409E-06
            ZONE MIXING =           0.0000           ZONE MIXING =           0.0000

              TOTAL OUT =       1.5456E-04             TOTAL OUT =       1.2564E-02

               IN - OUT =      -8.4721E-08              IN - OUT =      -1.7237E-05

    PERCENT DISCREPANCY =          -0.05     PERCENT DISCREPANCY =          -0.14


 HEAD WILL BE SAVED ON UNIT   51 AT END OF TIME STEP   10, STRESS PERIOD    1
1
  VOLUMETRIC BUDGET FOR ENTIRE MODEL AT END OF TIME STEP   10, STRESS PERIOD   1
  ------------------------------------------------------------------------------

     CUMULATIVE VOLUMES      L**3       RATES FOR THIS TIME STEP      L**3/T
     ------------------                 ------------------------

           IN:                                      IN:
           ---                                      ---
             STORAGE =       6.6200E-05               STORAGE =       2.4240E-05
       CONSTANT HEAD =       1.9288E-03         CONSTANT HEAD =           0.1641
               WELLS =           0.0000                 WELLS =           0.0000
          SWIADDTOCH =           0.0000            SWIADDTOCH =           0.0000

            TOTAL IN =       1.9950E-03              TOTAL IN =           0.1642

          OUT:                                     OUT:
          ----                                     ----
             STORAGE =       1.3077E-11               STORAGE =       3.5801E-09
       CONSTANT HEAD =           0.0000         CONSTANT HEAD =           0.0000
               WELLS =       1.9950E-03                 WELLS =           0.1642
          SWIADDTOCH =           0.0000            SWIADDTOCH =           0.0000

           TOTAL OUT =       1.9950E-03             TOTAL OUT =           0.1642

            IN - OUT =      -2.7940E-09              IN - OUT =      -4.4703E-08

 PERCENT DISCREPANCY =          -0.00     PERCENT DISCREPANCY =          -0.00






         TIME SUMMARY AT END OF TIME STEP   10 IN STRESS PERIOD    1
                    SECONDS     MINUTES      HOURS       DAYS        YEARS
                    -----------------------------------------------------------
   TIME STEP LENGTH  105.00      1.7500     2.91667E-02 1.21528E-03 3.32726E-06
 STRESS PERIOD TIME  1050.0      17.500     0.29167     1.21528E-02 3.32726E-05
         TOTAL TIME  1050.0      17.500     0.29167     1.21528E-02 3.32726E-05
1

 SOLVING FOR HEAD 
     2 EXTERNAL ITERATIONS FOR TIME STEP  11 IN STRESS PERIOD    1

 MAXIMUM HEAD CHANGE FOR EACH ITERATION:

     HEAD CHANGE  LAY,ROW,COL      HEAD CHANGE  LAY,ROW,COL  
 ------------------------------------------------------------
     3.885E-05 (  7,    1, 1000)  -1.699E-07 (  6,    1, 1000)



 OUTPUT CONTROL FOR STRESS PERIOD    1   TIME STEP   11
    PRINT BUDGET
    SAVE HEAD FOR ALL LAYERS
 SOLVING FOR ZETA FOR LAYER     6 ZONE     2

     493 UPPER PART EQS.       494 LOWER PART EQS.    BAND WIDTH + 1 =    3
 STRESS PERIOD=  1 TIMESTEP= 11 LAYER=  6 ZONE=  2 ACTIVE CELLS=  987 NUMBER OF EQUATIONS=     987
 UBUDSV SAVING "      ZETASRF  1" ON UNIT 55 AT TIME STEP 11, STRESS PERIOD    1


                      VOLUMETRIC SWI ZONE BUDGET FOR ENTIRE MODEL
                     AT END OF TIME STEP   11 IN STRESS PERIOD   1
                                      ZONE     1
  -----------------------------------------------------------------------------------

        CUMULATIVE VOLUMES      L**3       RATES FOR THIS TIME STEP      L**3/T
        ------------------                 ------------------------

              IN:                                      IN:
              ---                                      ---
             BOUNDARIES =       2.1978E-09            BOUNDARIES =       1.6954E-07
          CONSTANT HEAD =       1.9590E-03         CONSTANT HEAD =           0.1518
            ZONE CHANGE =       2.2129E-04           ZONE CHANGE =       1.2506E-02
       ZONE CHG TIP/TOE =       1.4809E-05      ZONE CHG TIP/TOE =       3.2438E-05
            ZONE MIXING =           0.0000           ZONE MIXING =           0.0000

               TOTAL IN =       2.1951E-03              TOTAL IN =           0.1643

             OUT:                                     OUT:
             ----                                     ----
             BOUNDARIES =       2.1945E-03            BOUNDARIES =           0.1642
          CONSTANT HEAD =           0.0000         CONSTANT HEAD =           0.0000
            ZONE CHANGE =       4.7911E-07           ZONE CHANGE =       1.0977E-04
       ZONE CHG TIP/TOE =       5.6179E-09      ZONE CHG TIP/TOE =       1.1752E-06
            ZONE MIXING =           0.0000           ZONE MIXING =           0.0000

              TOTAL OUT =       2.1950E-03             TOTAL OUT =           0.1643

               IN - OUT =       1.0896E-07              IN - OUT =       1.9446E-05

    PERCENT DISCREPANCY =           0.00     PERCENT DISCREPANCY =           0.01



                      VOLUMETRIC SWI ZONE BUDGET FOR ENTIRE MODEL
                     AT END OF TIME STEP   11 IN STRESS PERIOD   1
                                      ZONE     2
  -----------------------------------------------------------------------------------

        CUMULATIVE VOLUMES      L**3       RATES FOR THIS TIME STEP      L**3/T
        ------------------                 ------------------------

              IN:                                      IN:
              ---                                      ---
             BOUNDARIES =       8.7051E-15            BOUNDARIES =       6.4694E-13
          CONSTANT HEAD =       1.6928E-04         CONSTANT HEAD =       1.2388E-02
            ZONE CHANGE =       3.5179E-07           ZONE CHANGE =       8.6570E-05
       ZONE CHG TIP/TOE =       5.6179E-09      ZONE CHG TIP/TOE =       1.1752E-06
            ZONE MIXING =           0.0000           ZONE MIXING =           0.0000

               TOTAL IN =       1.6964E-04              TOTAL IN =       1.2476E-02

             OUT:                                     OUT:
             ----                                     ----
             BOUNDARIES =       8.7787E-15            BOUNDARIES =       6.5634E-13
          CONSTANT HEAD =           0.0000         CONSTANT HEAD =           0.0000
            ZONE CHANGE =       1.5506E-04           ZONE CHANGE =       1.2486E-02
       ZONE CHG TIP/TOE =       1.4681E-05      ZONE CHG TIP/TOE =       9.2424E-06
            ZONE MIXING =           0.0000           ZONE MIXING =           0.0000

              TOTAL OUT =       1.6974E-04             TOTAL OUT =       1.2495E-02

               IN - OUT =      -1.0803E-07              IN - OUT =      -1.9190E-05

    PERCENT DISCREPANCY =          -0.06     PERCENT DISCREPANCY =          -0.15


 HEAD WILL BE SAVED ON UNIT   51 AT END OF TIME STEP   11, STRESS PERIOD    1
1
  VOLUMETRIC BUDGET FOR ENTIRE MODEL AT END OF TIME STEP   11, STRESS PERIOD   1
  ------------------------------------------------------------------------------

     CUMULATIVE VOLUMES      L**3       RATES FOR THIS TIME STEP      L**3/T
     ------------------                 ------------------------

           IN:                                      IN:
           ---                                      ---
             STORAGE =       6.6224E-05               STORAGE =       1.9222E-05
       CONSTANT HEAD =       2.1283E-03         CONSTANT HEAD =           0.1641
               WELLS =           0.0000                 WELLS =           0.0000
          SWIADDTOCH =           0.0000            SWIADDTOCH =           0.0000

            TOTAL IN =       2.1945E-03              TOTAL IN =           0.1642

          OUT:                                     OUT:
          ----                                     ----
             STORAGE =       2.0818E-11               STORAGE =       6.3697E-09
       CONSTANT HEAD =           0.0000         CONSTANT HEAD =           0.0000
               WELLS =       2.1945E-03                 WELLS =           0.1642
          SWIADDTOCH =       1.0195E-11            SWIADDTOCH =       8.3889E-09

           TOTAL OUT =       2.1945E-03             TOTAL OUT =           0.1642

            IN - OUT =      -3.0268E-09              IN - OUT =      -5.9605E-08

 PERCENT DISCREPANCY =          -0.00     PERCENT DISCREPANCY =          -0.00






         TIME SUMMARY AT END OF TIME STEP   11 IN STRESS PERIOD    1
                    SECONDS     MINUTES      HOURS       DAYS        YEARS
                    -----------------------------------------------------------
   TIME STEP LENGTH  105.00      1.7500     2.91667E-02 1.21528E-03 3.32726E-06
 STRESS PERIOD TIME  1155.0      19.250     0.32083     1.33681E-02 3.65998E-05
         TOTAL TIME  1155.0      19.250     0.32083     1.33681E-02 3.65998E-05
1

 SOLVING FOR HEAD 
     2 EXTERNAL ITERATIONS FOR TIME STEP  12 IN STRESS PERIOD    1

 MAXIMUM HEAD CHANGE FOR EACH ITERATION:

     HEAD CHANGE  LAY,ROW,COL      HEAD CHANGE  LAY,ROW,COL  
 ------------------------------------------------------------
     3.868E-05 (  7,    1, 1000)  -1.725E-07 (  6,    1,  999)



 OUTPUT CONTROL FOR STRESS PERIOD    1   TIME STEP   12
    PRINT BUDGET
    SAVE HEAD FOR ALL LAYERS
 SOLVING FOR ZETA FOR LAYER     6 ZONE     2

     492 UPPER PART EQS.       495 LOWER PART EQS.    BAND WIDTH + 1 =    3
 STRESS PERIOD=  1 TIMESTEP= 12 LAYER=  6 ZONE=  2 ACTIVE CELLS=  987 NUMBER OF EQUATIONS=     987
 UBUDSV SAVING "      ZETASRF  1" ON UNIT 55 AT TIME STEP 12, STRESS PERIOD    1


                      VOLUMETRIC SWI ZONE BUDGET FOR ENTIRE MODEL
                     AT END OF TIME STEP   12 IN STRESS PERIOD   1
                                      ZONE     1
  -----------------------------------------------------------------------------------

        CUMULATIVE VOLUMES      L**3       RATES FOR THIS TIME STEP      L**3/T
        ------------------                 ------------------------

              IN:                                      IN:
              ---                                      ---
             BOUNDARIES =       2.4019E-09            BOUNDARIES =       1.6794E-07
          CONSTANT HEAD =       2.1435E-03         CONSTANT HEAD =           0.1518
            ZONE CHANGE =       2.3641E-04           ZONE CHANGE =       1.2440E-02
       ZONE CHG TIP/TOE =       1.4851E-05      ZONE CHG TIP/TOE =       3.5118E-05
            ZONE MIXING =           0.0000           ZONE MIXING =           0.0000

               TOTAL IN =       2.3948E-03              TOTAL IN =           0.1643

             OUT:                                     OUT:
             ----                                     ----
             BOUNDARIES =       2.3940E-03            BOUNDARIES =           0.1642
          CONSTANT HEAD =           0.0000         CONSTANT HEAD =           0.0000
            ZONE CHANGE =       6.4130E-07           ZONE CHANGE =       1.3346E-04
       ZONE CHG TIP/TOE =       6.7621E-09      ZONE CHG TIP/TOE =       9.4148E-07
            ZONE MIXING =           0.0000           ZONE MIXING =           0.0000

              TOTAL OUT =       2.3947E-03             TOTAL OUT =           0.1643

               IN - OUT =       1.3644E-07              IN - OUT =       2.2411E-05

    PERCENT DISCREPANCY =           0.01     PERCENT DISCREPANCY =           0.01



                      VOLUMETRIC SWI ZONE BUDGET FOR ENTIRE MODEL
                     AT END OF TIME STEP   12 IN STRESS PERIOD   1
                                      ZONE     2
  -----------------------------------------------------------------------------------

        CUMULATIVE VOLUMES      L**3       RATES FOR THIS TIME STEP      L**3/T
        ------------------                 ------------------------

              IN:                                      IN:
              ---                                      ---
             BOUNDARIES =       9.4731E-15            BOUNDARIES =       6.3200E-13
          CONSTANT HEAD =       1.8423E-04         CONSTANT HEAD =       1.2301E-02
            ZONE CHANGE =       4.8177E-07           ZONE CHANGE =       1.0695E-04
       ZONE CHG TIP/TOE =       6.7621E-09      ZONE CHG TIP/TOE =       9.4148E-07
            ZONE MIXING =           0.0000           ZONE MIXING =           0.0000

               TOTAL IN =       1.8472E-04              TOTAL IN =       1.2409E-02

             OUT:                                     OUT:
             ----                                     ----
             BOUNDARIES =       9.5673E-15            BOUNDARIES =       6.4891E-13
          CONSTANT HEAD =           0.0000         CONSTANT HEAD =           0.0000
            ZONE CHANGE =       1.7016E-04           ZONE CHANGE =       1.2422E-02
       ZONE CHG TIP/TOE =       1.4692E-05      ZONE CHG TIP/TOE =       8.6083E-06
            ZONE MIXING =           0.0000           ZONE MIXING =           0.0000

              TOTAL OUT =       1.8485E-04             TOTAL OUT =       1.2431E-02

               IN - OUT =      -1.3495E-07              IN - OUT =      -2.2155E-05

    PERCENT DISCREPANCY =          -0.07     PERCENT DISCREPANCY =          -0.18


 HEAD WILL BE SAVED ON UNIT   51 AT END OF TIME STEP   12, STRESS PERIOD    1
1
  VOLUMETRIC BUDGET FOR ENTIRE MODEL AT END OF TIME STEP   12, STRESS PERIOD   1
  ------------------------------------------------------------------------------

     CUMULATIVE VOLUMES      L**3       RATES FOR THIS TIME STEP      L**3/T
     ------------------                 ------------------------

           IN:                                      IN:
           ---                                      ---
             STORAGE =       6.6245E-05               STORAGE =       1.7365E-05
       CONSTANT HEAD =       2.3278E-03         CONSTANT HEAD =           0.1641
               WELLS =           0.0000                 WELLS =           0.0000
          SWIADDTOCH =           0.0000            SWIADDTOCH =           0.0000

            TOTAL IN =       2.3940E-03              TOTAL IN =           0.1642

          OUT:                                     OUT:
          ----                                     ----
             STORAGE =       2.7420E-11               STORAGE =       5.4323E-09
       CONSTANT HEAD =           0.0000         CONSTANT HEAD =           0.0000
               WELLS =       2.3940E-03                 WELLS =           0.1642
          SWIADDTOCH =       1.0195E-11            SWIADDTOCH =           0.0000

           TOTAL OUT =       2.3940E-03             TOTAL OUT =           0.1642

            IN - OUT =      -3.2596E-09              IN - OUT =      -5.9605E-08

 PERCENT DISCREPANCY =          -0.00     PERCENT DISCREPANCY =          -0.00






         TIME SUMMARY AT END OF TIME STEP   12 IN STRESS PERIOD    1
                    SECONDS     MINUTES      HOURS       DAYS        YEARS
                    -----------------------------------------------------------
   TIME STEP LENGTH  105.00      1.7500     2.91667E-02 1.21528E-03 3.32726E-06
 STRESS PERIOD TIME  1260.0      21.000     0.35000     1.45834E-02 3.99271E-05
         TOTAL TIME  1260.0      21.000     0.35000     1.45834E-02 3.99271E-05
1

 SOLVING FOR HEAD 
     2 EXTERNAL ITERATIONS FOR TIME STEP  13 IN STRESS PERIOD    1

 MAXIMUM HEAD CHANGE FOR EACH ITERATION:

     HEAD CHANGE  LAY,ROW,COL      HEAD CHANGE  LAY,ROW,COL  
 ------------------------------------------------------------
     3.848E-05 (  7,    1, 1000)  -1.755E-07 (  6,    1, 1000)



 OUTPUT CONTROL FOR STRESS PERIOD    1   TIME STEP   13
    PRINT BUDGET
    SAVE HEAD FOR ALL LAYERS
 SOLVING FOR ZETA FOR LAYER     6 ZONE     2

     492 UPPER PART EQS.       492 LOWER PART EQS.    BAND WIDTH + 1 =    3
 STRESS PERIOD=  1 TIMESTEP= 13 LAYER=  6 ZONE=  2 ACTIVE CELLS=  984 NUMBER OF EQUATIONS=     984
 UBUDSV SAVING "      ZETASRF  1" ON UNIT 55 AT TIME STEP 13, STRESS PERIOD    1


                      VOLUMETRIC SWI ZONE BUDGET FOR ENTIRE MODEL
                     AT END OF TIME STEP   13 IN STRESS PERIOD   1
                                      ZONE     1
  -----------------------------------------------------------------------------------

        CUMULATIVE VOLUMES      L**3       RATES FOR THIS TIME STEP      L**3/T
        ------------------                 ------------------------

              IN:                                      IN:
              ---                                      ---
             BOUNDARIES =       2.6039E-09            BOUNDARIES =       1.6623E-07
          CONSTANT HEAD =       2.3282E-03         CONSTANT HEAD =           0.1519
            ZONE CHANGE =       2.5144E-04           ZONE CHANGE =       1.2371E-02
       ZONE CHG TIP/TOE =       1.4897E-05      ZONE CHG TIP/TOE =       3.7843E-05
            ZONE MIXING =           0.0000           ZONE MIXING =           0.0000

               TOTAL IN =       2.5945E-03              TOTAL IN =           0.1643

             OUT:                                     OUT:
             ----                                     ----
             BOUNDARIES =       2.5935E-03            BOUNDARIES =           0.1642
          CONSTANT HEAD =           0.0000         CONSTANT HEAD =           0.0000
            ZONE CHANGE =       8.3042E-07           ZONE CHANGE =       1.5562E-04
       ZONE CHG TIP/TOE =       8.3343E-09      ZONE CHG TIP/TOE =       1.2938E-06
            ZONE MIXING =           0.0000           ZONE MIXING =           0.0000

              TOTAL OUT =       2.5943E-03             TOTAL OUT =           0.1643

               IN - OUT =       1.6089E-07              IN - OUT =       2.0117E-05

    PERCENT DISCREPANCY =           0.01     PERCENT DISCREPANCY =           0.01



                      VOLUMETRIC SWI ZONE BUDGET FOR ENTIRE MODEL
                     AT END OF TIME STEP   13 IN STRESS PERIOD   1
                                      ZONE     2
  -----------------------------------------------------------------------------------

        CUMULATIVE VOLUMES      L**3       RATES FOR THIS TIME STEP      L**3/T
        ------------------                 ------------------------

              IN:                                      IN:
              ---                                      ---
             BOUNDARIES =       1.0222E-14            BOUNDARIES =       6.1601E-13
          CONSTANT HEAD =       1.9907E-04         CONSTANT HEAD =       1.2215E-02
            ZONE CHANGE =       6.4037E-07           ZONE CHANGE =       1.3050E-04
       ZONE CHG TIP/TOE =       8.3343E-09      ZONE CHG TIP/TOE =       1.2938E-06
            ZONE MIXING =           0.0000           ZONE MIXING =           0.0000

               TOTAL IN =       1.9972E-04              TOTAL IN =       1.2347E-02

             OUT:                                     OUT:
             ----                                     ----
             BOUNDARIES =       1.0354E-14            BOUNDARIES =       6.4759E-13
          CONSTANT HEAD =           0.0000         CONSTANT HEAD =           0.0000
            ZONE CHANGE =       1.8517E-04           ZONE CHANGE =       1.2354E-02
       ZONE CHG TIP/TOE =       1.4707E-05      ZONE CHG TIP/TOE =       1.2729E-05
            ZONE MIXING =           0.0000           ZONE MIXING =           0.0000

              TOTAL OUT =       1.9988E-04             TOTAL OUT =       1.2367E-02

               IN - OUT =      -1.5911E-07              IN - OUT =      -1.9868E-05

    PERCENT DISCREPANCY =          -0.08     PERCENT DISCREPANCY =          -0.16


 HEAD WILL BE SAVED ON UNIT   51 AT END OF TIME STEP   13, STRESS PERIOD    1
1
  VOLUMETRIC BUDGET FOR ENTIRE MODEL AT END OF TIME STEP   13, STRESS PERIOD   1
  ------------------------------------------------------------------------------

     CUMULATIVE VOLUMES      L**3       RATES FOR THIS TIME STEP      L**3/T
     ------------------                 ------------------------

           IN:                                      IN:
           ---                                      ---
             STORAGE =       6.6265E-05               STORAGE =       1.6747E-05
       CONSTANT HEAD =       2.5272E-03         CONSTANT HEAD =           0.1641
               WELLS =           0.0000                 WELLS =           0.0000
          SWIADDTOCH =           0.0000            SWIADDTOCH =           0.0000

            TOTAL IN =       2.5935E-03              TOTAL IN =           0.1642

          OUT:                                     OUT:
          ----                                     ----
             STORAGE =       3.4014E-11               STORAGE =       5.4258E-09
       CONSTANT HEAD =           0.0000         CONSTANT HEAD =           0.0000
               WELLS =       2.5935E-03                 WELLS =           0.1642
          SWIADDTOCH =       2.1280E-11            SWIADDTOCH =       9.1215E-09

           TOTAL OUT =       2.5935E-03             TOTAL OUT =           0.1642

            IN - OUT =      -3.2596E-09              IN - OUT =      -5.9605E-08

 PERCENT DISCREPANCY =          -0.00     PERCENT DISCREPANCY =          -0.00






         TIME SUMMARY AT END OF TIME STEP   13 IN STRESS PERIOD    1
                    SECONDS     MINUTES      HOURS       DAYS        YEARS
                    -----------------------------------------------------------
   TIME STEP LENGTH  105.00      1.7500     2.91667E-02 1.21528E-03 3.32726E-06
 STRESS PERIOD TIME  1365.0      22.750     0.37917     1.57986E-02 4.32543E-05
         TOTAL TIME  1365.0      22.750     0.37917     1.57986E-02 4.32543E-05
1

 SOLVING FOR HEAD 
     2 EXTERNAL ITERATIONS FOR TIME STEP  14 IN STRESS PERIOD    1

 MAXIMUM HEAD CHANGE FOR EACH ITERATION:

     HEAD CHANGE  LAY,ROW,COL      HEAD CHANGE  LAY,ROW,COL  
 ------------------------------------------------------------
     3.824E-05 (  7,    1, 1000)  -1.787E-07 (  6,    1,  999)



 OUTPUT CONTROL FOR STRESS PERIOD    1   TIME STEP   14
    PRINT BUDGET
    SAVE HEAD FOR ALL LAYERS
 SOLVING FOR ZETA FOR LAYER     6 ZONE     2

     494 UPPER PART EQS.       492 LOWER PART EQS.    BAND WIDTH + 1 =    5
 STRESS PERIOD=  1 TIMESTEP= 14 LAYER=  6 ZONE=  2 ACTIVE CELLS=  986 NUMBER OF EQUATIONS=     986
 UBUDSV SAVING "      ZETASRF  1" ON UNIT 55 AT TIME STEP 14, STRESS PERIOD    1


                      VOLUMETRIC SWI ZONE BUDGET FOR ENTIRE MODEL
                     AT END OF TIME STEP   14 IN STRESS PERIOD   1
                                      ZONE     1
  -----------------------------------------------------------------------------------

        CUMULATIVE VOLUMES      L**3       RATES FOR THIS TIME STEP      L**3/T
        ------------------                 ------------------------

              IN:                                      IN:
              ---                                      ---
             BOUNDARIES =       2.8133E-09            BOUNDARIES =       1.7229E-07
          CONSTANT HEAD =       2.5129E-03         CONSTANT HEAD =           0.1520
            ZONE CHANGE =       2.6640E-04           ZONE CHANGE =       1.2305E-02
       ZONE CHG TIP/TOE =       1.4943E-05      ZONE CHG TIP/TOE =       3.7421E-05
            ZONE MIXING =           0.0000           ZONE MIXING =           0.0000

               TOTAL IN =       2.7942E-03              TOTAL IN =           0.1644

             OUT:                                     OUT:
             ----                                     ----
             BOUNDARIES =       2.7930E-03            BOUNDARIES =           0.1642
          CONSTANT HEAD =           0.0000         CONSTANT HEAD =           0.0000
            ZONE CHANGE =       1.0409E-06           ZONE CHANGE =       1.7323E-04
       ZONE CHG TIP/TOE =       1.0887E-08      ZONE CHG TIP/TOE =       2.1001E-06
            ZONE MIXING =           0.0000           ZONE MIXING =           0.0000

              TOTAL OUT =       2.7941E-03             TOTAL OUT =           0.1643

               IN - OUT =       1.8533E-07              IN - OUT =       2.0191E-05

    PERCENT DISCREPANCY =           0.01     PERCENT DISCREPANCY =           0.01



                      VOLUMETRIC SWI ZONE BUDGET FOR ENTIRE MODEL
                     AT END OF TIME STEP   14 IN STRESS PERIOD   1
                                      ZONE     2
  -----------------------------------------------------------------------------------

        CUMULATIVE VOLUMES      L**3       RATES FOR THIS TIME STEP      L**3/T
        ------------------                 ------------------------

              IN:                                      IN:
              ---                                      ---
             BOUNDARIES =       1.1006E-14            BOUNDARIES =       6.4507E-13
          CONSTANT HEAD =       2.1382E-04         CONSTANT HEAD =       1.2131E-02
            ZONE CHANGE =       8.1846E-07           ZONE CHANGE =       1.4654E-04
       ZONE CHG TIP/TOE =       1.0887E-08      ZONE CHG TIP/TOE =       2.1001E-06
            ZONE MIXING =           0.0000           ZONE MIXING =           0.0000

               TOTAL IN =       2.1464E-04              TOTAL IN =       1.2279E-02

             OUT:                                     OUT:
             ----                                     ----
             BOUNDARIES =       1.1148E-14            BOUNDARIES =       6.5301E-13
          CONSTANT HEAD =           0.0000         CONSTANT HEAD =           0.0000
            ZONE CHANGE =       2.0011E-04           ZONE CHANGE =       1.2288E-02
       ZONE CHG TIP/TOE =       1.4720E-05      ZONE CHG TIP/TOE =       1.0734E-05
            ZONE MIXING =           0.0000           ZONE MIXING =           0.0000

              TOTAL OUT =       2.1483E-04             TOTAL OUT =       1.2299E-02

               IN - OUT =      -1.8334E-07              IN - OUT =      -1.9939E-05

    PERCENT DISCREPANCY =          -0.09     PERCENT DISCREPANCY =          -0.16


 HEAD WILL BE SAVED ON UNIT   51 AT END OF TIME STEP   14, STRESS PERIOD    1
1
  VOLUMETRIC BUDGET FOR ENTIRE MODEL AT END OF TIME STEP   14, STRESS PERIOD   1
  ------------------------------------------------------------------------------

     CUMULATIVE VOLUMES      L**3       RATES FOR THIS TIME STEP      L**3/T
     ------------------                 ------------------------

           IN:                                      IN:
           ---                                      ---
             STORAGE =       6.6285E-05               STORAGE =       1.6627E-05
       CONSTANT HEAD =       2.7267E-03         CONSTANT HEAD =           0.1641
               WELLS =           0.0000                 WELLS =           0.0000
          SWIADDTOCH =           0.0000            SWIADDTOCH =           0.0000

            TOTAL IN =       2.7930E-03              TOTAL IN =           0.1642

          OUT:                                     OUT:
          ----                                     ----
             STORAGE =       4.1731E-11               STORAGE =       6.3503E-09
       CONSTANT HEAD =           0.0000         CONSTANT HEAD =           0.0000
               WELLS =       2.7930E-03                 WELLS =           0.1642
          SWIADDTOCH =       2.1280E-11            SWIADDTOCH =           0.0000

           TOTAL OUT =       2.7930E-03             TOTAL OUT =           0.1642

            IN - OUT =      -3.4925E-09              IN - OUT =      -5.9605E-08

 PERCENT DISCREPANCY =          -0.00     PERCENT DISCREPANCY =          -0.00






         TIME SUMMARY AT END OF TIME STEP   14 IN STRESS PERIOD    1
                    SECONDS     MINUTES      HOURS       DAYS        YEARS
                    -----------------------------------------------------------
   TIME STEP LENGTH  105.00      1.7500     2.91667E-02 1.21528E-03 3.32726E-06
 STRESS PERIOD TIME  1470.0      24.500     0.40833     1.70139E-02 4.65816E-05
         TOTAL TIME  1470.0      24.500     0.40833     1.70139E-02 4.65816E-05
1

 SOLVING FOR HEAD 
     2 EXTERNAL ITERATIONS FOR TIME STEP  15 IN STRESS PERIOD    1

 MAXIMUM HEAD CHANGE FOR EACH ITERATION:

     HEAD CHANGE  LAY,ROW,COL      HEAD CHANGE  LAY,ROW,COL  
 ------------------------------------------------------------
     3.798E-05 (  7,    1, 1000)  -1.823E-07 (  6,    1,  999)



 OUTPUT CONTROL FOR STRESS PERIOD    1   TIME STEP   15
    PRINT BUDGET
    SAVE HEAD FOR ALL LAYERS
 SOLVING FOR ZETA FOR LAYER     6 ZONE     2

     490 UPPER PART EQS.       493 LOWER PART EQS.    BAND WIDTH + 1 =    4
 STRESS PERIOD=  1 TIMESTEP= 15 LAYER=  6 ZONE=  2 ACTIVE CELLS=  983 NUMBER OF EQUATIONS=     983
 UBUDSV SAVING "      ZETASRF  1" ON UNIT 55 AT TIME STEP 15, STRESS PERIOD    1


                      VOLUMETRIC SWI ZONE BUDGET FOR ENTIRE MODEL
                     AT END OF TIME STEP   15 IN STRESS PERIOD   1
                                      ZONE     1
  -----------------------------------------------------------------------------------

        CUMULATIVE VOLUMES      L**3       RATES FOR THIS TIME STEP      L**3/T
        ------------------                 ------------------------

              IN:                                      IN:
              ---                                      ---
             BOUNDARIES =       3.0211E-09            BOUNDARIES =       1.7103E-07
          CONSTANT HEAD =       2.6977E-03         CONSTANT HEAD =           0.1521
            ZONE CHANGE =       2.8128E-04           ZONE CHANGE =       1.2245E-02
       ZONE CHG TIP/TOE =       1.4990E-05      ZONE CHG TIP/TOE =       3.9135E-05
            ZONE MIXING =           0.0000           ZONE MIXING =           0.0000

               TOTAL IN =       2.9940E-03              TOTAL IN =           0.1644

             OUT:                                     OUT:
             ----                                     ----
             BOUNDARIES =       2.9925E-03            BOUNDARIES =           0.1642
          CONSTANT HEAD =           0.0000         CONSTANT HEAD =           0.0000
            ZONE CHANGE =       1.2827E-06           ZONE CHANGE =       1.9896E-04
       ZONE CHG TIP/TOE =       1.3242E-08      ZONE CHG TIP/TOE =       1.9382E-06
            ZONE MIXING =           0.0000           ZONE MIXING =           0.0000

              TOTAL OUT =       2.9938E-03             TOTAL OUT =           0.1644

               IN - OUT =       2.0862E-07              IN - OUT =       1.8761E-05

    PERCENT DISCREPANCY =           0.01     PERCENT DISCREPANCY =           0.01



                      VOLUMETRIC SWI ZONE BUDGET FOR ENTIRE MODEL
                     AT END OF TIME STEP   15 IN STRESS PERIOD   1
                                      ZONE     2
  -----------------------------------------------------------------------------------

        CUMULATIVE VOLUMES      L**3       RATES FOR THIS TIME STEP      L**3/T
        ------------------                 ------------------------

              IN:                                      IN:
              ---                                      ---
             BOUNDARIES =       1.1810E-14            BOUNDARIES =       6.6160E-13
          CONSTANT HEAD =       2.2846E-04         CONSTANT HEAD =       1.2048E-02
            ZONE CHANGE =       1.0290E-06           ZONE CHANGE =       1.7327E-04
       ZONE CHG TIP/TOE =       1.3242E-08      ZONE CHG TIP/TOE =       1.9382E-06
            ZONE MIXING =           0.0000           ZONE MIXING =           0.0000

               TOTAL IN =       2.2950E-04              TOTAL IN =       1.2223E-02

             OUT:                                     OUT:
             ----                                     ----
             BOUNDARIES =       1.1908E-14            BOUNDARIES =       6.2547E-13
          CONSTANT HEAD =           0.0000         CONSTANT HEAD =           0.0000
            ZONE CHANGE =       2.1497E-04           ZONE CHANGE =       1.2228E-02
       ZONE CHG TIP/TOE =       1.4736E-05      ZONE CHG TIP/TOE =       1.3449E-05
            ZONE MIXING =           0.0000           ZONE MIXING =           0.0000

              TOTAL OUT =       2.2970E-04             TOTAL OUT =       1.2241E-02

               IN - OUT =      -2.0584E-07              IN - OUT =      -1.8518E-05

    PERCENT DISCREPANCY =          -0.09     PERCENT DISCREPANCY =          -0.15


 HEAD WILL BE SAVED ON UNIT   51 AT END OF TIME STEP   15, STRESS PERIOD    1
1
  VOLUMETRIC BUDGET FOR ENTIRE MODEL AT END OF TIME STEP   15, STRESS PERIOD   1
  ------------------------------------------------------------------------------

     CUMULATIVE VOLUMES      L**3       RATES FOR THIS TIME STEP      L**3/T
     ------------------                 ------------------------

           IN:                                      IN:
           ---                                      ---
             STORAGE =       6.6306E-05               STORAGE =       1.6699E-05
       CONSTANT HEAD =       2.9262E-03         CONSTANT HEAD =           0.1641
               WELLS =           0.0000                 WELLS =           0.0000
          SWIADDTOCH =           0.0000            SWIADDTOCH =           0.0000

            TOTAL IN =       2.9925E-03              TOTAL IN =           0.1642

          OUT:                                     OUT:
          ----                                     ----
             STORAGE =       4.9440E-11               STORAGE =       6.3433E-09
       CONSTANT HEAD =           0.0000         CONSTANT HEAD =           0.0000
               WELLS =       2.9925E-03                 WELLS =           0.1642
          SWIADDTOCH =       2.1280E-11            SWIADDTOCH =           0.0000

           TOTAL OUT =       2.9925E-03             TOTAL OUT =           0.1642

            IN - OUT =      -3.7253E-09              IN - OUT =      -5.9605E-08

 PERCENT DISCREPANCY =          -0.00     PERCENT DISCREPANCY =          -0.00






         TIME SUMMARY AT END OF TIME STEP   15 IN STRESS PERIOD    1
                    SECONDS     MINUTES      HOURS       DAYS        YEARS
                    -----------------------------------------------------------
   TIME STEP LENGTH  105.00      1.7500     2.91667E-02 1.21528E-03 3.32726E-06
 STRESS PERIOD TIME  1575.0      26.250     0.43750     1.82292E-02 4.99088E-05
         TOTAL TIME  1575.0      26.250     0.43750     1.82292E-02 4.99088E-05
1

 SOLVING FOR HEAD 
     2 EXTERNAL ITERATIONS FOR TIME STEP  16 IN STRESS PERIOD    1

 MAXIMUM HEAD CHANGE FOR EACH ITERATION:

     HEAD CHANGE  LAY,ROW,COL      HEAD CHANGE  LAY,ROW,COL  
 ------------------------------------------------------------
     3.770E-05 (  7,    1, 1000)  -1.854E-07 (  6,    1,  999)



 OUTPUT CONTROL FOR STRESS PERIOD    1   TIME STEP   16
    PRINT BUDGET
    SAVE HEAD FOR ALL LAYERS
 SOLVING FOR ZETA FOR LAYER     6 ZONE     2

     491 UPPER PART EQS.       492 LOWER PART EQS.    BAND WIDTH + 1 =    3
 STRESS PERIOD=  1 TIMESTEP= 16 LAYER=  6 ZONE=  2 ACTIVE CELLS=  983 NUMBER OF EQUATIONS=     983
 UBUDSV SAVING "      ZETASRF  1" ON UNIT 55 AT TIME STEP 16, STRESS PERIOD    1


                      VOLUMETRIC SWI ZONE BUDGET FOR ENTIRE MODEL
                     AT END OF TIME STEP   16 IN STRESS PERIOD   1
                                      ZONE     1
  -----------------------------------------------------------------------------------

        CUMULATIVE VOLUMES      L**3       RATES FOR THIS TIME STEP      L**3/T
        ------------------                 ------------------------

              IN:                                      IN:
              ---                                      ---
             BOUNDARIES =       3.2262E-09            BOUNDARIES =       1.6873E-07
          CONSTANT HEAD =       2.8827E-03         CONSTANT HEAD =           0.1522
            ZONE CHANGE =       2.9607E-04           ZONE CHANGE =       1.2171E-02
       ZONE CHG TIP/TOE =       1.5035E-05      ZONE CHG TIP/TOE =       3.7202E-05
            ZONE MIXING =           0.0000           ZONE MIXING =           0.0000

               TOTAL IN =       3.1938E-03              TOTAL IN =           0.1644

             OUT:                                     OUT:
             ----                                     ----
             BOUNDARIES =       3.1920E-03            BOUNDARIES =           0.1642
          CONSTANT HEAD =           0.0000         CONSTANT HEAD =           0.0000
            ZONE CHANGE =       1.5348E-06           ZONE CHANGE =       2.0743E-04
       ZONE CHG TIP/TOE =       1.5248E-08      ZONE CHG TIP/TOE =       1.6507E-06
            ZONE MIXING =           0.0000           ZONE MIXING =           0.0000

              TOTAL OUT =       3.1936E-03             TOTAL OUT =           0.1644

               IN - OUT =       2.2864E-07              IN - OUT =       1.6287E-05

    PERCENT DISCREPANCY =           0.01     PERCENT DISCREPANCY =           0.01



                      VOLUMETRIC SWI ZONE BUDGET FOR ENTIRE MODEL
                     AT END OF TIME STEP   16 IN STRESS PERIOD   1
                                      ZONE     2
  -----------------------------------------------------------------------------------

        CUMULATIVE VOLUMES      L**3       RATES FOR THIS TIME STEP      L**3/T
        ------------------                 ------------------------

              IN:                                      IN:
              ---                                      ---
             BOUNDARIES =       1.2653E-14            BOUNDARIES =       6.9424E-13
          CONSTANT HEAD =       2.4300E-04         CONSTANT HEAD =       1.1966E-02
            ZONE CHANGE =       1.2523E-06           ZONE CHANGE =       1.8370E-04
       ZONE CHG TIP/TOE =       1.5248E-08      ZONE CHG TIP/TOE =       1.6507E-06
            ZONE MIXING =           0.0000           ZONE MIXING =           0.0000

               TOTAL IN =       2.4427E-04              TOTAL IN =       1.2151E-02

             OUT:                                     OUT:
             ----                                     ----
             BOUNDARIES =       1.2672E-14            BOUNDARIES =       6.2907E-13
          CONSTANT HEAD =           0.0000         CONSTANT HEAD =           0.0000
            ZONE CHANGE =       2.2974E-04           ZONE CHANGE =       1.2154E-02
       ZONE CHG TIP/TOE =       1.4753E-05      ZONE CHG TIP/TOE =       1.3472E-05
            ZONE MIXING =           0.0000           ZONE MIXING =           0.0000

              TOTAL OUT =       2.4449E-04             TOTAL OUT =       1.2167E-02

               IN - OUT =      -2.2532E-07              IN - OUT =      -1.6029E-05

    PERCENT DISCREPANCY =          -0.09     PERCENT DISCREPANCY =          -0.13


 HEAD WILL BE SAVED ON UNIT   51 AT END OF TIME STEP   16, STRESS PERIOD    1
1
  VOLUMETRIC BUDGET FOR ENTIRE MODEL AT END OF TIME STEP   16, STRESS PERIOD   1
  ------------------------------------------------------------------------------

     CUMULATIVE VOLUMES      L**3       RATES FOR THIS TIME STEP      L**3/T
     ------------------                 ------------------------

           IN:                                      IN:
           ---                                      ---
             STORAGE =       6.6326E-05               STORAGE =       1.6865E-05
       CONSTANT HEAD =       3.1257E-03         CONSTANT HEAD =           0.1641
               WELLS =           0.0000                 WELLS =           0.0000
          SWIADDTOCH =           0.0000            SWIADDTOCH =           0.0000

            TOTAL IN =       3.1920E-03              TOTAL IN =           0.1642

          OUT:                                     OUT:
          ----                                     ----
             STORAGE =       5.3745E-11               STORAGE =       3.5422E-09
       CONSTANT HEAD =           0.0000         CONSTANT HEAD =           0.0000
               WELLS =       3.1920E-03                 WELLS =           0.1642
          SWIADDTOCH =       2.1280E-11            SWIADDTOCH =           0.0000

           TOTAL OUT =       3.1920E-03             TOTAL OUT =           0.1642

            IN - OUT =      -3.9581E-09              IN - OUT =      -4.4703E-08

 PERCENT DISCREPANCY =          -0.00     PERCENT DISCREPANCY =          -0.00






         TIME SUMMARY AT END OF TIME STEP   16 IN STRESS PERIOD    1
                    SECONDS     MINUTES      HOURS       DAYS        YEARS
                    -----------------------------------------------------------
   TIME STEP LENGTH  105.00      1.7500     2.91667E-02 1.21528E-03 3.32726E-06
 STRESS PERIOD TIME  1680.0      28.000     0.46667     1.94445E-02 5.32361E-05
         TOTAL TIME  1680.0      28.000     0.46667     1.94445E-02 5.32361E-05
1

 SOLVING FOR HEAD 
     2 EXTERNAL ITERATIONS FOR TIME STEP  17 IN STRESS PERIOD    1

 MAXIMUM HEAD CHANGE FOR EACH ITERATION:

     HEAD CHANGE  LAY,ROW,COL      HEAD CHANGE  LAY,ROW,COL  
 ------------------------------------------------------------
     3.739E-05 (  7,    1, 1000)  -1.888E-07 (  6,    1,  999)



 OUTPUT CONTROL FOR STRESS PERIOD    1   TIME STEP   17
    PRINT BUDGET
    SAVE HEAD FOR ALL LAYERS
 SOLVING FOR ZETA FOR LAYER     6 ZONE     2

     494 UPPER PART EQS.       492 LOWER PART EQS.    BAND WIDTH + 1 =    4
 STRESS PERIOD=  1 TIMESTEP= 17 LAYER=  6 ZONE=  2 ACTIVE CELLS=  986 NUMBER OF EQUATIONS=     986
 UBUDSV SAVING "      ZETASRF  1" ON UNIT 55 AT TIME STEP 17, STRESS PERIOD    1


                      VOLUMETRIC SWI ZONE BUDGET FOR ENTIRE MODEL
                     AT END OF TIME STEP   17 IN STRESS PERIOD   1
                                      ZONE     1
  -----------------------------------------------------------------------------------

        CUMULATIVE VOLUMES      L**3       RATES FOR THIS TIME STEP      L**3/T
        ------------------                 ------------------------

              IN:                                      IN:
              ---                                      ---
             BOUNDARIES =       3.4184E-09            BOUNDARIES =       1.5817E-07
          CONSTANT HEAD =       3.0677E-03         CONSTANT HEAD =           0.1523
            ZONE CHANGE =       3.1079E-04           ZONE CHANGE =       1.2115E-02
       ZONE CHG TIP/TOE =       1.5089E-05      ZONE CHG TIP/TOE =       4.4008E-05
            ZONE MIXING =           0.0000           ZONE MIXING =           0.0000

               TOTAL IN =       3.3936E-03              TOTAL IN =           0.1644

             OUT:                                     OUT:
             ----                                     ----
             BOUNDARIES =       3.3915E-03            BOUNDARIES =           0.1642
          CONSTANT HEAD =           0.0000         CONSTANT HEAD =           0.0000
            ZONE CHANGE =       1.8173E-06           ZONE CHANGE =       2.3240E-04
       ZONE CHG TIP/TOE =       1.6039E-08      ZONE CHG TIP/TOE =       6.5119E-07
            ZONE MIXING =           0.0000           ZONE MIXING =           0.0000

              TOTAL OUT =       3.3933E-03             TOTAL OUT =           0.1644

               IN - OUT =       2.5774E-07              IN - OUT =       2.3797E-05

    PERCENT DISCREPANCY =           0.01     PERCENT DISCREPANCY =           0.01



                      VOLUMETRIC SWI ZONE BUDGET FOR ENTIRE MODEL
                     AT END OF TIME STEP   17 IN STRESS PERIOD   1
                                      ZONE     2
  -----------------------------------------------------------------------------------

        CUMULATIVE VOLUMES      L**3       RATES FOR THIS TIME STEP      L**3/T
        ------------------                 ------------------------

              IN:                                      IN:
              ---                                      ---
             BOUNDARIES =       1.3472E-14            BOUNDARIES =       6.7346E-13
          CONSTANT HEAD =       2.5744E-04         CONSTANT HEAD =       1.1885E-02
            ZONE CHANGE =       1.4975E-06           ZONE CHANGE =       2.0175E-04
       ZONE CHG TIP/TOE =       1.6039E-08      ZONE CHG TIP/TOE =       6.5119E-07
            ZONE MIXING =           0.0000           ZONE MIXING =           0.0000

               TOTAL IN =       2.5896E-04              TOTAL IN =       1.2088E-02

             OUT:                                     OUT:
             ----                                     ----
             BOUNDARIES =       1.3429E-14            BOUNDARIES =       6.2289E-13
          CONSTANT HEAD =           0.0000         CONSTANT HEAD =           0.0000
            ZONE CHANGE =       2.4444E-04           ZONE CHANGE =       1.2098E-02
       ZONE CHG TIP/TOE =       1.4769E-05      ZONE CHG TIP/TOE =       1.3365E-05
            ZONE MIXING =           0.0000           ZONE MIXING =           0.0000

              TOTAL OUT =       2.5921E-04             TOTAL OUT =       1.2111E-02

               IN - OUT =      -2.5393E-07              IN - OUT =      -2.3557E-05

    PERCENT DISCREPANCY =          -0.10     PERCENT DISCREPANCY =          -0.19


 HEAD WILL BE SAVED ON UNIT   51 AT END OF TIME STEP   17, STRESS PERIOD    1
1
  VOLUMETRIC BUDGET FOR ENTIRE MODEL AT END OF TIME STEP   17, STRESS PERIOD   1
  ------------------------------------------------------------------------------

     CUMULATIVE VOLUMES      L**3       RATES FOR THIS TIME STEP      L**3/T
     ------------------                 ------------------------

           IN:                                      IN:
           ---                                      ---
             STORAGE =       6.6347E-05               STORAGE =       1.7056E-05
       CONSTANT HEAD =       3.3252E-03         CONSTANT HEAD =           0.1641
               WELLS =           0.0000                 WELLS =           0.0000
          SWIADDTOCH =           0.0000            SWIADDTOCH =           0.0000

            TOTAL IN =       3.3915E-03              TOTAL IN =           0.1642

          OUT:                                     OUT:
          ----                                     ----
             STORAGE =       5.6909E-11               STORAGE =       2.6035E-09
       CONSTANT HEAD =           0.0000         CONSTANT HEAD =           0.0000
               WELLS =       3.3915E-03                 WELLS =           0.1642
          SWIADDTOCH =       2.1280E-11            SWIADDTOCH =           0.0000

           TOTAL OUT =       3.3915E-03             TOTAL OUT =           0.1642

            IN - OUT =      -4.1910E-09              IN - OUT =      -4.4703E-08

 PERCENT DISCREPANCY =          -0.00     PERCENT DISCREPANCY =          -0.00






         TIME SUMMARY AT END OF TIME STEP   17 IN STRESS PERIOD    1
                    SECONDS     MINUTES      HOURS       DAYS        YEARS
                    -----------------------------------------------------------
   TIME STEP LENGTH  105.00      1.7500     2.91667E-02 1.21528E-03 3.32726E-06
 STRESS PERIOD TIME  1785.0      29.750     0.49583     2.06598E-02 5.65633E-05
         TOTAL TIME  1785.0      29.750     0.49583     2.06598E-02 5.65633E-05
1

 SOLVING FOR HEAD 
     2 EXTERNAL ITERATIONS FOR TIME STEP  18 IN STRESS PERIOD    1

 MAXIMUM HEAD CHANGE FOR EACH ITERATION:

     HEAD CHANGE  LAY,ROW,COL      HEAD CHANGE  LAY,ROW,COL  
 ------------------------------------------------------------
     3.708E-05 (  7,    1, 1000)  -1.919E-07 (  6,    1, 1000)



 OUTPUT CONTROL FOR STRESS PERIOD    1   TIME STEP   18
    PRINT BUDGET
    SAVE HEAD FOR ALL LAYERS
 SOLVING FOR ZETA FOR LAYER     6 ZONE     2

     489 UPPER PART EQS.       493 LOWER PART EQS.    BAND WIDTH + 1 =    4
 STRESS PERIOD=  1 TIMESTEP= 18 LAYER=  6 ZONE=  2 ACTIVE CELLS=  982 NUMBER OF EQUATIONS=     982
 UBUDSV SAVING "      ZETASRF  1" ON UNIT 55 AT TIME STEP 18, STRESS PERIOD    1


                      VOLUMETRIC SWI ZONE BUDGET FOR ENTIRE MODEL
                     AT END OF TIME STEP   18 IN STRESS PERIOD   1
                                      ZONE     1
  -----------------------------------------------------------------------------------

        CUMULATIVE VOLUMES      L**3       RATES FOR THIS TIME STEP      L**3/T
        ------------------                 ------------------------

              IN:                                      IN:
              ---                                      ---
             BOUNDARIES =       3.6252E-09            BOUNDARIES =       1.7013E-07
          CONSTANT HEAD =       3.2528E-03         CONSTANT HEAD =           0.1523
            ZONE CHANGE =       3.2543E-04           ZONE CHANGE =       1.2044E-02
       ZONE CHG TIP/TOE =       1.5139E-05      ZONE CHG TIP/TOE =       4.1153E-05
            ZONE MIXING =           0.0000           ZONE MIXING =           0.0000

               TOTAL IN =       3.5934E-03              TOTAL IN =           0.1644

             OUT:                                     OUT:
             ----                                     ----
             BOUNDARIES =       3.5910E-03            BOUNDARIES =           0.1642
          CONSTANT HEAD =           0.0000         CONSTANT HEAD =           0.0000
            ZONE CHANGE =       2.1147E-06           ZONE CHANGE =       2.4474E-04
       ZONE CHG TIP/TOE =       1.8671E-08      ZONE CHG TIP/TOE =       2.1656E-06
            ZONE MIXING =           0.0000           ZONE MIXING =           0.0000

              TOTAL OUT =       3.5931E-03             TOTAL OUT =           0.1644

               IN - OUT =       2.7684E-07              IN - OUT =       1.5646E-05

    PERCENT DISCREPANCY =           0.01     PERCENT DISCREPANCY =           0.01



                      VOLUMETRIC SWI ZONE BUDGET FOR ENTIRE MODEL
                     AT END OF TIME STEP   18 IN STRESS PERIOD   1
                                      ZONE     2
  -----------------------------------------------------------------------------------

        CUMULATIVE VOLUMES      L**3       RATES FOR THIS TIME STEP      L**3/T
        ------------------                 ------------------------

              IN:                                      IN:
              ---                                      ---
             BOUNDARIES =       1.4301E-14            BOUNDARIES =       6.8256E-13
          CONSTANT HEAD =       2.7179E-04         CONSTANT HEAD =       1.1806E-02
            ZONE CHANGE =       1.7646E-06           ZONE CHANGE =       2.1979E-04
       ZONE CHG TIP/TOE =       1.8671E-08      ZONE CHG TIP/TOE =       2.1656E-06
            ZONE MIXING =           0.0000           ZONE MIXING =           0.0000

               TOTAL IN =       2.7357E-04              TOTAL IN =       1.2028E-02

             OUT:                                     OUT:
             ----                                     ----
             BOUNDARIES =       1.4212E-14            BOUNDARIES =       6.4384E-13
          CONSTANT HEAD =           0.0000         CONSTANT HEAD =           0.0000
            ZONE CHANGE =       2.5906E-04           ZONE CHANGE =       1.2027E-02
       ZONE CHG TIP/TOE =       1.4789E-05      ZONE CHG TIP/TOE =       1.6204E-05
            ZONE MIXING =           0.0000           ZONE MIXING =           0.0000

              TOTAL OUT =       2.7384E-04             TOTAL OUT =       1.2043E-02

               IN - OUT =      -2.7264E-07              IN - OUT =      -1.5385E-05

    PERCENT DISCREPANCY =          -0.10     PERCENT DISCREPANCY =          -0.13


 HEAD WILL BE SAVED ON UNIT   51 AT END OF TIME STEP   18, STRESS PERIOD    1
1
  VOLUMETRIC BUDGET FOR ENTIRE MODEL AT END OF TIME STEP   18, STRESS PERIOD   1
  ------------------------------------------------------------------------------

     CUMULATIVE VOLUMES      L**3       RATES FOR THIS TIME STEP      L**3/T
     ------------------                 ------------------------

           IN:                                      IN:
           ---                                      ---
             STORAGE =       6.6368E-05               STORAGE =       1.7214E-05
       CONSTANT HEAD =       3.5246E-03         CONSTANT HEAD =           0.1641
               WELLS =           0.0000                 WELLS =           0.0000
          SWIADDTOCH =           0.0000            SWIADDTOCH =           0.0000

            TOTAL IN =       3.5910E-03              TOTAL IN =           0.1642

          OUT:                                     OUT:
          ----                                     ----
             STORAGE =       6.4592E-11               STORAGE =       6.3217E-09
       CONSTANT HEAD =           0.0000         CONSTANT HEAD =           0.0000
               WELLS =       3.5910E-03                 WELLS =           0.1642
          SWIADDTOCH =       2.1280E-11            SWIADDTOCH =           0.0000

           TOTAL OUT =       3.5910E-03             TOTAL OUT =           0.1642

            IN - OUT =      -4.4238E-09              IN - OUT =      -7.4506E-08

 PERCENT DISCREPANCY =          -0.00     PERCENT DISCREPANCY =          -0.00






         TIME SUMMARY AT END OF TIME STEP   18 IN STRESS PERIOD    1
                    SECONDS     MINUTES      HOURS       DAYS        YEARS
                    -----------------------------------------------------------
   TIME STEP LENGTH  105.00      1.7500     2.91667E-02 1.21528E-03 3.32726E-06
 STRESS PERIOD TIME  1890.0      31.500     0.52500     2.18750E-02 5.98906E-05
         TOTAL TIME  1890.0      31.500     0.52500     2.18750E-02 5.98906E-05
1

 SOLVING FOR HEAD 
     2 EXTERNAL ITERATIONS FOR TIME STEP  19 IN STRESS PERIOD    1

 MAXIMUM HEAD CHANGE FOR EACH ITERATION:

     HEAD CHANGE  LAY,ROW,COL      HEAD CHANGE  LAY,ROW,COL  
 ------------------------------------------------------------
     3.675E-05 (  7,    1, 1000)  -1.949E-07 (  6,    1,  999)



 OUTPUT CONTROL FOR STRESS PERIOD    1   TIME STEP   19
    PRINT BUDGET
    SAVE HEAD FOR ALL LAYERS
 SOLVING FOR ZETA FOR LAYER     6 ZONE     2

     493 UPPER PART EQS.       493 LOWER PART EQS.    BAND WIDTH + 1 =    3
 STRESS PERIOD=  1 TIMESTEP= 19 LAYER=  6 ZONE=  2 ACTIVE CELLS=  986 NUMBER OF EQUATIONS=     986
 UBUDSV SAVING "      ZETASRF  1" ON UNIT 55 AT TIME STEP 19, STRESS PERIOD    1


                      VOLUMETRIC SWI ZONE BUDGET FOR ENTIRE MODEL
                     AT END OF TIME STEP   19 IN STRESS PERIOD   1
                                      ZONE     1
  -----------------------------------------------------------------------------------

        CUMULATIVE VOLUMES      L**3       RATES FOR THIS TIME STEP      L**3/T
        ------------------                 ------------------------

              IN:                                      IN:
              ---                                      ---
             BOUNDARIES =       3.8159E-09            BOUNDARIES =       1.5697E-07
          CONSTANT HEAD =       3.4381E-03         CONSTANT HEAD =           0.1524
            ZONE CHANGE =       3.4000E-04           ZONE CHANGE =       1.1987E-02
       ZONE CHG TIP/TOE =       1.5182E-05      ZONE CHG TIP/TOE =       3.4997E-05
            ZONE MIXING =           0.0000           ZONE MIXING =           0.0000

               TOTAL IN =       3.7933E-03              TOTAL IN =           0.1644

             OUT:                                     OUT:
             ----                                     ----
             BOUNDARIES =       3.7905E-03            BOUNDARIES =           0.1642
          CONSTANT HEAD =           0.0000         CONSTANT HEAD =           0.0000
            ZONE CHANGE =       2.4343E-06           ZONE CHANGE =       2.6299E-04
       ZONE CHG TIP/TOE =       2.0306E-08      ZONE CHG TIP/TOE =       1.3451E-06
            ZONE MIXING =           0.0000           ZONE MIXING =           0.0000

              TOTAL OUT =       3.7930E-03             TOTAL OUT =           0.1644

               IN - OUT =       2.9197E-07              IN - OUT =       1.2577E-05

    PERCENT DISCREPANCY =           0.01     PERCENT DISCREPANCY =           0.01



                      VOLUMETRIC SWI ZONE BUDGET FOR ENTIRE MODEL
                     AT END OF TIME STEP   19 IN STRESS PERIOD   1
                                      ZONE     2
  -----------------------------------------------------------------------------------

        CUMULATIVE VOLUMES      L**3       RATES FOR THIS TIME STEP      L**3/T
        ------------------                 ------------------------

              IN:                                      IN:
              ---                                      ---
             BOUNDARIES =       1.5094E-14            BOUNDARIES =       6.5228E-13
          CONSTANT HEAD =       2.8604E-04         CONSTANT HEAD =       1.1727E-02
            ZONE CHANGE =       2.0576E-06           ZONE CHANGE =       2.4114E-04
       ZONE CHG TIP/TOE =       2.0306E-08      ZONE CHG TIP/TOE =       1.3451E-06
            ZONE MIXING =           0.0000           ZONE MIXING =           0.0000

               TOTAL IN =       2.8812E-04              TOTAL IN =       1.1970E-02

             OUT:                                     OUT:
             ----                                     ----
             BOUNDARIES =       1.5018E-14            BOUNDARIES =       6.6344E-13
          CONSTANT HEAD =           0.0000         CONSTANT HEAD =           0.0000
            ZONE CHANGE =       2.7360E-04           ZONE CHANGE =       1.1969E-02
       ZONE CHG TIP/TOE =       1.4805E-05      ZONE CHG TIP/TOE =       1.3143E-05
            ZONE MIXING =           0.0000           ZONE MIXING =           0.0000

              TOTAL OUT =       2.8841E-04             TOTAL OUT =       1.1982E-02

               IN - OUT =      -2.8766E-07              IN - OUT =      -1.2333E-05

    PERCENT DISCREPANCY =          -0.10     PERCENT DISCREPANCY =          -0.10


 HEAD WILL BE SAVED ON UNIT   51 AT END OF TIME STEP   19, STRESS PERIOD    1
1
  VOLUMETRIC BUDGET FOR ENTIRE MODEL AT END OF TIME STEP   19, STRESS PERIOD   1
  ------------------------------------------------------------------------------

     CUMULATIVE VOLUMES      L**3       RATES FOR THIS TIME STEP      L**3/T
     ------------------                 ------------------------

           IN:                                      IN:
           ---                                      ---
             STORAGE =       6.6389E-05               STORAGE =       1.7431E-05
       CONSTANT HEAD =       3.7241E-03         CONSTANT HEAD =           0.1641
               WELLS =           0.0000                 WELLS =           0.0000
          SWIADDTOCH =           0.0000            SWIADDTOCH =           0.0000

            TOTAL IN =       3.7905E-03              TOTAL IN =           0.1642

          OUT:                                     OUT:
          ----                                     ----
             STORAGE =       6.7738E-11               STORAGE =       2.5892E-09
       CONSTANT HEAD =           0.0000         CONSTANT HEAD =           0.0000
               WELLS =       3.7905E-03                 WELLS =           0.1642
          SWIADDTOCH =       3.5413E-11            SWIADDTOCH =       1.1630E-08

           TOTAL OUT =       3.7905E-03             TOTAL OUT =           0.1642

            IN - OUT =      -4.6566E-09              IN - OUT =      -4.4703E-08

 PERCENT DISCREPANCY =          -0.00     PERCENT DISCREPANCY =          -0.00






         TIME SUMMARY AT END OF TIME STEP   19 IN STRESS PERIOD    1
                    SECONDS     MINUTES      HOURS       DAYS        YEARS
                    -----------------------------------------------------------
   TIME STEP LENGTH  105.00      1.7500     2.91667E-02 1.21528E-03 3.32726E-06
 STRESS PERIOD TIME  1995.0      33.250     0.55417     2.30903E-02 6.32178E-05
         TOTAL TIME  1995.0      33.250     0.55417     2.30903E-02 6.32178E-05
1

 SOLVING FOR HEAD 
     2 EXTERNAL ITERATIONS FOR TIME STEP  20 IN STRESS PERIOD    1

 MAXIMUM HEAD CHANGE FOR EACH ITERATION:

     HEAD CHANGE  LAY,ROW,COL      HEAD CHANGE  LAY,ROW,COL  
 ------------------------------------------------------------
     3.639E-05 (  7,    1, 1000)  -1.979E-07 (  6,    1,  998)



 OUTPUT CONTROL FOR STRESS PERIOD    1   TIME STEP   20
    PRINT BUDGET
    SAVE HEAD FOR ALL LAYERS
 SOLVING FOR ZETA FOR LAYER     6 ZONE     2

     490 UPPER PART EQS.       494 LOWER PART EQS.    BAND WIDTH + 1 =    5
 STRESS PERIOD=  1 TIMESTEP= 20 LAYER=  6 ZONE=  2 ACTIVE CELLS=  984 NUMBER OF EQUATIONS=     984
 UBUDSV SAVING "      ZETASRF  1" ON UNIT 55 AT TIME STEP 20, STRESS PERIOD    1


                      VOLUMETRIC SWI ZONE BUDGET FOR ENTIRE MODEL
                     AT END OF TIME STEP   20 IN STRESS PERIOD   1
                                      ZONE     1
  -----------------------------------------------------------------------------------

        CUMULATIVE VOLUMES      L**3       RATES FOR THIS TIME STEP      L**3/T
        ------------------                 ------------------------

              IN:                                      IN:
              ---                                      ---
             BOUNDARIES =       4.0156E-09            BOUNDARIES =       1.6433E-07
          CONSTANT HEAD =       3.6234E-03         CONSTANT HEAD =           0.1525
            ZONE CHANGE =       3.5447E-04           ZONE CHANGE =       1.1913E-02
       ZONE CHG TIP/TOE =       1.5233E-05      ZONE CHG TIP/TOE =       4.2082E-05
            ZONE MIXING =           0.0000           ZONE MIXING =           0.0000

               TOTAL IN =       3.9931E-03              TOTAL IN =           0.1644

             OUT:                                     OUT:
             ----                                     ----
             BOUNDARIES =       3.9900E-03            BOUNDARIES =           0.1642
          CONSTANT HEAD =           0.0000         CONSTANT HEAD =           0.0000
            ZONE CHANGE =       2.7633E-06           ZONE CHANGE =       2.7077E-04
       ZONE CHG TIP/TOE =       2.2061E-08      ZONE CHG TIP/TOE =       1.4439E-06
            ZONE MIXING =           0.0000           ZONE MIXING =           0.0000

              TOTAL OUT =       3.9928E-03             TOTAL OUT =           0.1644

               IN - OUT =       3.1106E-07              IN - OUT =       1.5259E-05

    PERCENT DISCREPANCY =           0.01     PERCENT DISCREPANCY =           0.01



                      VOLUMETRIC SWI ZONE BUDGET FOR ENTIRE MODEL
                     AT END OF TIME STEP   20 IN STRESS PERIOD   1
                                      ZONE     2
  -----------------------------------------------------------------------------------

        CUMULATIVE VOLUMES      L**3       RATES FOR THIS TIME STEP      L**3/T
        ------------------                 ------------------------

              IN:                                      IN:
              ---                                      ---
             BOUNDARIES =       1.5869E-14            BOUNDARIES =       6.3726E-13
          CONSTANT HEAD =       3.0020E-04         CONSTANT HEAD =       1.1650E-02
            ZONE CHANGE =       2.3558E-06           ZONE CHANGE =       2.4538E-04
       ZONE CHG TIP/TOE =       2.2061E-08      ZONE CHG TIP/TOE =       1.4439E-06
            ZONE MIXING =           0.0000           ZONE MIXING =           0.0000

               TOTAL IN =       3.0258E-04              TOTAL IN =       1.1897E-02

             OUT:                                     OUT:
             ----                                     ----
             BOUNDARIES =       1.5793E-14            BOUNDARIES =       6.3768E-13
          CONSTANT HEAD =           0.0000         CONSTANT HEAD =           0.0000
            ZONE CHANGE =       2.8806E-04           ZONE CHANGE =       1.1895E-02
       ZONE CHG TIP/TOE =       1.4825E-05      ZONE CHG TIP/TOE =       1.6696E-05
            ZONE MIXING =           0.0000           ZONE MIXING =           0.0000

              TOTAL OUT =       3.0288E-04             TOTAL OUT =       1.1912E-02

               IN - OUT =      -3.0588E-07              IN - OUT =      -1.5005E-05

    PERCENT DISCREPANCY =          -0.10     PERCENT DISCREPANCY =          -0.13


 HEAD WILL BE SAVED ON UNIT   51 AT END OF TIME STEP   20, STRESS PERIOD    1
1
  VOLUMETRIC BUDGET FOR ENTIRE MODEL AT END OF TIME STEP   20, STRESS PERIOD   1
  ------------------------------------------------------------------------------

     CUMULATIVE VOLUMES      L**3       RATES FOR THIS TIME STEP      L**3/T
     ------------------                 ------------------------

           IN:                                      IN:
           ---                                      ---
             STORAGE =       6.6410E-05               STORAGE =       1.7592E-05
       CONSTANT HEAD =       3.9236E-03         CONSTANT HEAD =           0.1641
               WELLS =           0.0000                 WELLS =           0.0000
          SWIADDTOCH =           0.0000            SWIADDTOCH =           0.0000

            TOTAL IN =       3.9900E-03              TOTAL IN =           0.1642

          OUT:                                     OUT:
          ----                                     ----
             STORAGE =       7.6535E-11               STORAGE =       7.2383E-09
       CONSTANT HEAD =           0.0000         CONSTANT HEAD =           0.0000
               WELLS =       3.9900E-03                 WELLS =           0.1642
          SWIADDTOCH =       3.5413E-11            SWIADDTOCH =           0.0000

           TOTAL OUT =       3.9900E-03             TOTAL OUT =           0.1642

            IN - OUT =      -5.1223E-09              IN - OUT =      -4.4703E-08

 PERCENT DISCREPANCY =          -0.00     PERCENT DISCREPANCY =          -0.00






         TIME SUMMARY AT END OF TIME STEP   20 IN STRESS PERIOD    1
                    SECONDS     MINUTES      HOURS       DAYS        YEARS
                    -----------------------------------------------------------
   TIME STEP LENGTH  105.00      1.7500     2.91667E-02 1.21528E-03 3.32726E-06
 STRESS PERIOD TIME  2100.0      35.000     0.58333     2.43056E-02 6.65451E-05
         TOTAL TIME  2100.0      35.000     0.58333     2.43056E-02 6.65451E-05
1

 SOLVING FOR HEAD 
     2 EXTERNAL ITERATIONS FOR TIME STEP  21 IN STRESS PERIOD    1

 MAXIMUM HEAD CHANGE FOR EACH ITERATION:

     HEAD CHANGE  LAY,ROW,COL      HEAD CHANGE  LAY,ROW,COL  
 ------------------------------------------------------------
     3.605E-05 (  7,    1, 1000)  -2.006E-07 (  6,    1, 1000)



 OUTPUT CONTROL FOR STRESS PERIOD    1   TIME STEP   21
    PRINT BUDGET
    SAVE HEAD FOR ALL LAYERS
 SOLVING FOR ZETA FOR LAYER     6 ZONE     2

     492 UPPER PART EQS.       492 LOWER PART EQS.    BAND WIDTH + 1 =    3
 STRESS PERIOD=  1 TIMESTEP= 21 LAYER=  6 ZONE=  2 ACTIVE CELLS=  984 NUMBER OF EQUATIONS=     984
 UBUDSV SAVING "      ZETASRF  1" ON UNIT 55 AT TIME STEP 21, STRESS PERIOD    1


                      VOLUMETRIC SWI ZONE BUDGET FOR ENTIRE MODEL
                     AT END OF TIME STEP   21 IN STRESS PERIOD   1
                                      ZONE     1
  -----------------------------------------------------------------------------------

        CUMULATIVE VOLUMES      L**3       RATES FOR THIS TIME STEP      L**3/T
        ------------------                 ------------------------

              IN:                                      IN:
              ---                                      ---
             BOUNDARIES =       4.2167E-09            BOUNDARIES =       1.6544E-07
          CONSTANT HEAD =       3.8088E-03         CONSTANT HEAD =           0.1526
            ZONE CHANGE =       3.6887E-04           ZONE CHANGE =       1.1848E-02
       ZONE CHG TIP/TOE =       1.5273E-05      ZONE CHG TIP/TOE =       3.3171E-05
            ZONE MIXING =           0.0000           ZONE MIXING =           0.0000

               TOTAL IN =       4.1930E-03              TOTAL IN =           0.1645

             OUT:                                     OUT:
             ----                                     ----
             BOUNDARIES =       4.1895E-03            BOUNDARIES =           0.1642
          CONSTANT HEAD =           0.0000         CONSTANT HEAD =           0.0000
            ZONE CHANGE =       3.1035E-06           ZONE CHANGE =       2.7988E-04
       ZONE CHG TIP/TOE =       2.6216E-08      ZONE CHG TIP/TOE =       3.4195E-06
            ZONE MIXING =           0.0000           ZONE MIXING =           0.0000

              TOTAL OUT =       4.1926E-03             TOTAL OUT =           0.1644

               IN - OUT =       3.1944E-07              IN - OUT =       7.3016E-06

    PERCENT DISCREPANCY =           0.01     PERCENT DISCREPANCY =           0.00



                      VOLUMETRIC SWI ZONE BUDGET FOR ENTIRE MODEL
                     AT END OF TIME STEP   21 IN STRESS PERIOD   1
                                      ZONE     2
  -----------------------------------------------------------------------------------

        CUMULATIVE VOLUMES      L**3       RATES FOR THIS TIME STEP      L**3/T
        ------------------                 ------------------------

              IN:                                      IN:
              ---                                      ---
             BOUNDARIES =       1.6669E-14            BOUNDARIES =       6.5866E-13
          CONSTANT HEAD =       3.1426E-04         CONSTANT HEAD =       1.1573E-02
            ZONE CHANGE =       2.6715E-06           ZONE CHANGE =       2.5974E-04
       ZONE CHG TIP/TOE =       2.6216E-08      ZONE CHG TIP/TOE =       3.4195E-06
            ZONE MIXING =           0.0000           ZONE MIXING =           0.0000

               TOTAL IN =       3.1696E-04              TOTAL IN =       1.1836E-02

             OUT:                                     OUT:
             ----                                     ----
             BOUNDARIES =       1.6645E-14            BOUNDARIES =       7.0089E-13
          CONSTANT HEAD =           0.0000         CONSTANT HEAD =           0.0000
            ZONE CHANGE =       3.0243E-04           ZONE CHANGE =       1.1830E-02
       ZONE CHG TIP/TOE =       1.4841E-05      ZONE CHG TIP/TOE =       1.3032E-05
            ZONE MIXING =           0.0000           ZONE MIXING =           0.0000

              TOTAL OUT =       3.1728E-04             TOTAL OUT =       1.1843E-02

               IN - OUT =      -3.1447E-07              IN - OUT =      -7.0715E-06

    PERCENT DISCREPANCY =          -0.10     PERCENT DISCREPANCY =          -0.06


 HEAD WILL BE SAVED ON UNIT   51 AT END OF TIME STEP   21, STRESS PERIOD    1
1
  VOLUMETRIC BUDGET FOR ENTIRE MODEL AT END OF TIME STEP   21, STRESS PERIOD   1
  ------------------------------------------------------------------------------

     CUMULATIVE VOLUMES      L**3       RATES FOR THIS TIME STEP      L**3/T
     ------------------                 ------------------------

           IN:                                      IN:
           ---                                      ---
             STORAGE =       6.6432E-05               STORAGE =       1.7774E-05
       CONSTANT HEAD =       4.1231E-03         CONSTANT HEAD =           0.1641
               WELLS =           0.0000                 WELLS =           0.0000
          SWIADDTOCH =           0.0000            SWIADDTOCH =           0.0000

            TOTAL IN =       4.1895E-03              TOTAL IN =           0.1642

          OUT:                                     OUT:
          ----                                     ----
             STORAGE =       8.0796E-11               STORAGE =       3.5059E-09
       CONSTANT HEAD =           0.0000         CONSTANT HEAD =           0.0000
               WELLS =       4.1895E-03                 WELLS =           0.1642
          SWIADDTOCH =       3.5413E-11            SWIADDTOCH =           0.0000

           TOTAL OUT =       4.1895E-03             TOTAL OUT =           0.1642

            IN - OUT =      -5.1223E-09              IN - OUT =      -4.4703E-08

 PERCENT DISCREPANCY =          -0.00     PERCENT DISCREPANCY =          -0.00






         TIME SUMMARY AT END OF TIME STEP   21 IN STRESS PERIOD    1
                    SECONDS     MINUTES      HOURS       DAYS        YEARS
                    -----------------------------------------------------------
   TIME STEP LENGTH  105.00      1.7500     2.91667E-02 1.21528E-03 3.32726E-06
 STRESS PERIOD TIME  2205.0      36.750     0.61250     2.55209E-02 6.98723E-05
         TOTAL TIME  2205.0      36.750     0.61250     2.55209E-02 6.98723E-05
1

 SOLVING FOR HEAD 
     2 EXTERNAL ITERATIONS FOR TIME STEP  22 IN STRESS PERIOD    1

 MAXIMUM HEAD CHANGE FOR EACH ITERATION:

     HEAD CHANGE  LAY,ROW,COL      HEAD CHANGE  LAY,ROW,COL  
 ------------------------------------------------------------
     3.568E-05 (  7,    1, 1000)  -2.036E-07 (  6,    1, 1000)



 OUTPUT CONTROL FOR STRESS PERIOD    1   TIME STEP   22
    PRINT BUDGET
    SAVE HEAD FOR ALL LAYERS
 SOLVING FOR ZETA FOR LAYER     6 ZONE     2

     493 UPPER PART EQS.       491 LOWER PART EQS.    BAND WIDTH + 1 =    4
 STRESS PERIOD=  1 TIMESTEP= 22 LAYER=  6 ZONE=  2 ACTIVE CELLS=  984 NUMBER OF EQUATIONS=     984
 UBUDSV SAVING "      ZETASRF  1" ON UNIT 55 AT TIME STEP 22, STRESS PERIOD    1


                      VOLUMETRIC SWI ZONE BUDGET FOR ENTIRE MODEL
                     AT END OF TIME STEP   22 IN STRESS PERIOD   1
                                      ZONE     1
  -----------------------------------------------------------------------------------

        CUMULATIVE VOLUMES      L**3       RATES FOR THIS TIME STEP      L**3/T
        ------------------                 ------------------------

              IN:                                      IN:
              ---                                      ---
             BOUNDARIES =       4.4191E-09            BOUNDARIES =       1.6658E-07
          CONSTANT HEAD =       3.9943E-03         CONSTANT HEAD =           0.1526
            ZONE CHANGE =       3.8318E-04           ZONE CHANGE =       1.1774E-02
       ZONE CHG TIP/TOE =       1.5319E-05      ZONE CHG TIP/TOE =       3.7590E-05
            ZONE MIXING =           0.0000           ZONE MIXING =           0.0000

               TOTAL IN =       4.3928E-03              TOTAL IN =           0.1645

             OUT:                                     OUT:
             ----                                     ----
             BOUNDARIES =       4.3890E-03            BOUNDARIES =           0.1642
          CONSTANT HEAD =           0.0000         CONSTANT HEAD =           0.0000
            ZONE CHANGE =       3.4506E-06           ZONE CHANGE =       2.8565E-04
       ZONE CHG TIP/TOE =       3.0047E-08      ZONE CHG TIP/TOE =       3.1518E-06
            ZONE MIXING =           0.0000           ZONE MIXING =           0.0000

              TOTAL OUT =       4.3925E-03             TOTAL OUT =           0.1644

               IN - OUT =       3.2876E-07              IN - OUT =       7.5847E-06

    PERCENT DISCREPANCY =           0.01     PERCENT DISCREPANCY =           0.00



                      VOLUMETRIC SWI ZONE BUDGET FOR ENTIRE MODEL
                     AT END OF TIME STEP   22 IN STRESS PERIOD   1
                                      ZONE     2
  -----------------------------------------------------------------------------------

        CUMULATIVE VOLUMES      L**3       RATES FOR THIS TIME STEP      L**3/T
        ------------------                 ------------------------

              IN:                                      IN:
              ---                                      ---
             BOUNDARIES =       1.7459E-14            BOUNDARIES =       6.4970E-13
          CONSTANT HEAD =       3.2824E-04         CONSTANT HEAD =       1.1498E-02
            ZONE CHANGE =       2.9931E-06           ZONE CHANGE =       2.6461E-04
       ZONE CHG TIP/TOE =       3.0047E-08      ZONE CHG TIP/TOE =       3.1518E-06
            ZONE MIXING =           0.0000           ZONE MIXING =           0.0000

               TOTAL IN =       3.3126E-04              TOTAL IN =       1.1765E-02

             OUT:                                     OUT:
             ----                                     ----
             BOUNDARIES =       1.7423E-14            BOUNDARIES =       6.4035E-13
          CONSTANT HEAD =           0.0000         CONSTANT HEAD =           0.0000
            ZONE CHANGE =       3.1672E-04           ZONE CHANGE =       1.1756E-02
       ZONE CHG TIP/TOE =       1.4861E-05      ZONE CHG TIP/TOE =       1.6551E-05
            ZONE MIXING =           0.0000           ZONE MIXING =           0.0000

              TOTAL OUT =       3.3158E-04             TOTAL OUT =       1.1773E-02

               IN - OUT =      -3.2343E-07              IN - OUT =      -7.3425E-06

    PERCENT DISCREPANCY =          -0.10     PERCENT DISCREPANCY =          -0.06


 HEAD WILL BE SAVED ON UNIT   51 AT END OF TIME STEP   22, STRESS PERIOD    1
1
  VOLUMETRIC BUDGET FOR ENTIRE MODEL AT END OF TIME STEP   22, STRESS PERIOD   1
  ------------------------------------------------------------------------------

     CUMULATIVE VOLUMES      L**3       RATES FOR THIS TIME STEP      L**3/T
     ------------------                 ------------------------

           IN:                                      IN:
           ---                                      ---
             STORAGE =       6.6454E-05               STORAGE =       1.7931E-05
       CONSTANT HEAD =       4.3226E-03         CONSTANT HEAD =           0.1641
               WELLS =           0.0000                 WELLS =           0.0000
          SWIADDTOCH =           0.0000            SWIADDTOCH =           0.0000

            TOTAL IN =       4.3890E-03              TOTAL IN =           0.1642

          OUT:                                     OUT:
          ----                                     ----
             STORAGE =       8.1652E-11               STORAGE =       7.0464E-10
       CONSTANT HEAD =           0.0000         CONSTANT HEAD =           0.0000
               WELLS =       4.3890E-03                 WELLS =           0.1642
          SWIADDTOCH =       3.5413E-11            SWIADDTOCH =           0.0000

           TOTAL OUT =       4.3890E-03             TOTAL OUT =           0.1642

            IN - OUT =      -5.5879E-09              IN - OUT =      -7.4506E-08

 PERCENT DISCREPANCY =          -0.00     PERCENT DISCREPANCY =          -0.00






         TIME SUMMARY AT END OF TIME STEP   22 IN STRESS PERIOD    1
                    SECONDS     MINUTES      HOURS       DAYS        YEARS
                    -----------------------------------------------------------
   TIME STEP LENGTH  105.00      1.7500     2.91667E-02 1.21528E-03 3.32726E-06
 STRESS PERIOD TIME  2310.0      38.500     0.64167     2.67361E-02 7.31996E-05
         TOTAL TIME  2310.0      38.500     0.64167     2.67361E-02 7.31996E-05
1

 SOLVING FOR HEAD 
     2 EXTERNAL ITERATIONS FOR TIME STEP  23 IN STRESS PERIOD    1

 MAXIMUM HEAD CHANGE FOR EACH ITERATION:

     HEAD CHANGE  LAY,ROW,COL      HEAD CHANGE  LAY,ROW,COL  
 ------------------------------------------------------------
     3.530E-05 (  7,    1, 1000)  -2.061E-07 (  6,    1, 1000)



 OUTPUT CONTROL FOR STRESS PERIOD    1   TIME STEP   23
    PRINT BUDGET
    SAVE HEAD FOR ALL LAYERS
 SOLVING FOR ZETA FOR LAYER     6 ZONE     2

     492 UPPER PART EQS.       492 LOWER PART EQS.    BAND WIDTH + 1 =    4
 STRESS PERIOD=  1 TIMESTEP= 23 LAYER=  6 ZONE=  2 ACTIVE CELLS=  984 NUMBER OF EQUATIONS=     984
 UBUDSV SAVING "      ZETASRF  1" ON UNIT 55 AT TIME STEP 23, STRESS PERIOD    1


                      VOLUMETRIC SWI ZONE BUDGET FOR ENTIRE MODEL
                     AT END OF TIME STEP   23 IN STRESS PERIOD   1
                                      ZONE     1
  -----------------------------------------------------------------------------------

        CUMULATIVE VOLUMES      L**3       RATES FOR THIS TIME STEP      L**3/T
        ------------------                 ------------------------

              IN:                                      IN:
              ---                                      ---
             BOUNDARIES =       4.6207E-09            BOUNDARIES =       1.6583E-07
          CONSTANT HEAD =       4.1799E-03         CONSTANT HEAD =           0.1527
            ZONE CHANGE =       3.9741E-04           ZONE CHANGE =       1.1705E-02
       ZONE CHG TIP/TOE =       1.5359E-05      ZONE CHG TIP/TOE =       3.3056E-05
            ZONE MIXING =           0.0000           ZONE MIXING =           0.0000

               TOTAL IN =       4.5927E-03              TOTAL IN =           0.1645

             OUT:                                     OUT:
             ----                                     ----
             BOUNDARIES =       4.5885E-03            BOUNDARIES =           0.1642
          CONSTANT HEAD =           0.0000         CONSTANT HEAD =           0.0000
            ZONE CHANGE =       3.8038E-06           ZONE CHANGE =       2.9061E-04
       ZONE CHG TIP/TOE =       3.6445E-08      ZONE CHG TIP/TOE =       5.2650E-06
            ZONE MIXING =           0.0000           ZONE MIXING =           0.0000

              TOTAL OUT =       4.5924E-03             TOTAL OUT =           0.1645

               IN - OUT =       3.3062E-07              IN - OUT =       1.1623E-06

    PERCENT DISCREPANCY =           0.01     PERCENT DISCREPANCY =           0.00



                      VOLUMETRIC SWI ZONE BUDGET FOR ENTIRE MODEL
                     AT END OF TIME STEP   23 IN STRESS PERIOD   1
                                      ZONE     2
  -----------------------------------------------------------------------------------

        CUMULATIVE VOLUMES      L**3       RATES FOR THIS TIME STEP      L**3/T
        ------------------                 ------------------------

              IN:                                      IN:
              ---                                      ---
             BOUNDARIES =       1.8234E-14            BOUNDARIES =       6.3784E-13
          CONSTANT HEAD =       3.4212E-04         CONSTANT HEAD =       1.1423E-02
            ZONE CHANGE =       3.3250E-06           ZONE CHANGE =       2.7312E-04
       ZONE CHG TIP/TOE =       3.6445E-08      ZONE CHG TIP/TOE =       5.2650E-06
            ZONE MIXING =           0.0000           ZONE MIXING =           0.0000

               TOTAL IN =       3.4548E-04              TOTAL IN =       1.1701E-02

             OUT:                                     OUT:
             ----                                     ----
             BOUNDARIES =       1.8218E-14            BOUNDARIES =       6.5392E-13
          CONSTANT HEAD =           0.0000         CONSTANT HEAD =           0.0000
            ZONE CHANGE =       3.3092E-04           ZONE CHANGE =       1.1687E-02
       ZONE CHG TIP/TOE =       1.4880E-05      ZONE CHG TIP/TOE =       1.5572E-05
            ZONE MIXING =           0.0000           ZONE MIXING =           0.0000

              TOTAL OUT =       3.4580E-04             TOTAL OUT =       1.1702E-02

               IN - OUT =      -3.2451E-07              IN - OUT =      -9.0618E-07

    PERCENT DISCREPANCY =          -0.09     PERCENT DISCREPANCY =          -0.01


 HEAD WILL BE SAVED ON UNIT   51 AT END OF TIME STEP   23, STRESS PERIOD    1
1
  VOLUMETRIC BUDGET FOR ENTIRE MODEL AT END OF TIME STEP   23, STRESS PERIOD   1
  ------------------------------------------------------------------------------

     CUMULATIVE VOLUMES      L**3       RATES FOR THIS TIME STEP      L**3/T
     ------------------                 ------------------------

           IN:                                      IN:
           ---                                      ---
             STORAGE =       6.6476E-05               STORAGE =       1.8092E-05
       CONSTANT HEAD =       4.5220E-03         CONSTANT HEAD =           0.1641
               WELLS =           0.0000                 WELLS =           0.0000
          SWIADDTOCH =           0.0000            SWIADDTOCH =           0.0000

            TOTAL IN =       4.5885E-03              TOTAL IN =           0.1642

          OUT:                                     OUT:
          ----                                     ----
             STORAGE =       8.9290E-11               STORAGE =       6.2852E-09
       CONSTANT HEAD =           0.0000         CONSTANT HEAD =           0.0000
               WELLS =       4.5885E-03                 WELLS =           0.1642
          SWIADDTOCH =       3.5413E-11            SWIADDTOCH =           0.0000

           TOTAL OUT =       4.5885E-03             TOTAL OUT =           0.1642

            IN - OUT =      -5.5879E-09              IN - OUT =      -5.9605E-08

 PERCENT DISCREPANCY =          -0.00     PERCENT DISCREPANCY =          -0.00






         TIME SUMMARY AT END OF TIME STEP   23 IN STRESS PERIOD    1
                    SECONDS     MINUTES      HOURS       DAYS        YEARS
                    -----------------------------------------------------------
   TIME STEP LENGTH  105.00      1.7500     2.91667E-02 1.21528E-03 3.32726E-06
 STRESS PERIOD TIME  2415.0      40.250     0.67083     2.79514E-02 7.65268E-05
         TOTAL TIME  2415.0      40.250     0.67083     2.79514E-02 7.65268E-05
1

 SOLVING FOR HEAD 
     2 EXTERNAL ITERATIONS FOR TIME STEP  24 IN STRESS PERIOD    1

 MAXIMUM HEAD CHANGE FOR EACH ITERATION:

     HEAD CHANGE  LAY,ROW,COL      HEAD CHANGE  LAY,ROW,COL  
 ------------------------------------------------------------
     3.493E-05 (  7,    1, 1000)  -2.086E-07 (  6,    1,  999)



 OUTPUT CONTROL FOR STRESS PERIOD    1   TIME STEP   24
    PRINT BUDGET
    SAVE HEAD FOR ALL LAYERS
 SOLVING FOR ZETA FOR LAYER     6 ZONE     2

     493 UPPER PART EQS.       494 LOWER PART EQS.    BAND WIDTH + 1 =    4
 STRESS PERIOD=  1 TIMESTEP= 24 LAYER=  6 ZONE=  2 ACTIVE CELLS=  987 NUMBER OF EQUATIONS=     987
 UBUDSV SAVING "      ZETASRF  1" ON UNIT 55 AT TIME STEP 24, STRESS PERIOD    1


                      VOLUMETRIC SWI ZONE BUDGET FOR ENTIRE MODEL
                     AT END OF TIME STEP   24 IN STRESS PERIOD   1
                                      ZONE     1
  -----------------------------------------------------------------------------------

        CUMULATIVE VOLUMES      L**3       RATES FOR THIS TIME STEP      L**3/T
        ------------------                 ------------------------

              IN:                                      IN:
              ---                                      ---
             BOUNDARIES =       4.8192E-09            BOUNDARIES =       1.6336E-07
          CONSTANT HEAD =       4.3656E-03         CONSTANT HEAD =           0.1528
            ZONE CHANGE =       4.1157E-04           ZONE CHANGE =       1.1654E-02
       ZONE CHG TIP/TOE =       1.5396E-05      ZONE CHG TIP/TOE =       3.0677E-05
            ZONE MIXING =           0.0000           ZONE MIXING =           0.0000

               TOTAL IN =       4.7926E-03              TOTAL IN =           0.1645

             OUT:                                     OUT:
             ----                                     ----
             BOUNDARIES =       4.7880E-03            BOUNDARIES =           0.1642
          CONSTANT HEAD =           0.0000         CONSTANT HEAD =           0.0000
            ZONE CHANGE =       4.1831E-06           ZONE CHANGE =       3.1211E-04
       ZONE CHG TIP/TOE =       4.2625E-08      ZONE CHG TIP/TOE =       5.0852E-06
            ZONE MIXING =           0.0000           ZONE MIXING =           0.0000

              TOTAL OUT =       4.7922E-03             TOTAL OUT =           0.1645

               IN - OUT =       3.3015E-07              IN - OUT =      -3.1292E-07

    PERCENT DISCREPANCY =           0.01     PERCENT DISCREPANCY =          -0.00



                      VOLUMETRIC SWI ZONE BUDGET FOR ENTIRE MODEL
                     AT END OF TIME STEP   24 IN STRESS PERIOD   1
                                      ZONE     2
  -----------------------------------------------------------------------------------

        CUMULATIVE VOLUMES      L**3       RATES FOR THIS TIME STEP      L**3/T
        ------------------                 ------------------------

              IN:                                      IN:
              ---                                      ---
             BOUNDARIES =       1.8993E-14            BOUNDARIES =       6.2479E-13
          CONSTANT HEAD =       3.5591E-04         CONSTANT HEAD =       1.1349E-02
            ZONE CHANGE =       3.6840E-06           ZONE CHANGE =       2.9540E-04
       ZONE CHG TIP/TOE =       4.2625E-08      ZONE CHG TIP/TOE =       5.0852E-06
            ZONE MIXING =           0.0000           ZONE MIXING =           0.0000

               TOTAL IN =       3.5964E-04              TOTAL IN =       1.1649E-02

             OUT:                                     OUT:
             ----                                     ----
             BOUNDARIES =       1.9027E-14            BOUNDARIES =       6.6556E-13
          CONSTANT HEAD =           0.0000         CONSTANT HEAD =           0.0000
            ZONE CHANGE =       3.4506E-04           ZONE CHANGE =       1.1635E-02
       ZONE CHG TIP/TOE =       1.4897E-05      ZONE CHG TIP/TOE =       1.3961E-05
            ZONE MIXING =           0.0000           ZONE MIXING =           0.0000

              TOTAL OUT =       3.5996E-04             TOTAL OUT =       1.1649E-02

               IN - OUT =      -3.2381E-07              IN - OUT =       5.6252E-07

    PERCENT DISCREPANCY =          -0.09     PERCENT DISCREPANCY =           0.00


 HEAD WILL BE SAVED ON UNIT   51 AT END OF TIME STEP   24, STRESS PERIOD    1
1
  VOLUMETRIC BUDGET FOR ENTIRE MODEL AT END OF TIME STEP   24, STRESS PERIOD   1
  ------------------------------------------------------------------------------

     CUMULATIVE VOLUMES      L**3       RATES FOR THIS TIME STEP      L**3/T
     ------------------                 ------------------------

           IN:                                      IN:
           ---                                      ---
             STORAGE =       6.6498E-05               STORAGE =       1.8245E-05
       CONSTANT HEAD =       4.7215E-03         CONSTANT HEAD =           0.1641
               WELLS =           0.0000                 WELLS =           0.0000
          SWIADDTOCH =           0.0000            SWIADDTOCH =           0.0000

            TOTAL IN =       4.7880E-03              TOTAL IN =           0.1642

          OUT:                                     OUT:
          ----                                     ----
             STORAGE =       9.3524E-11               STORAGE =       3.4840E-09
       CONSTANT HEAD =           0.0000         CONSTANT HEAD =           0.0000
               WELLS =       4.7880E-03                 WELLS =           0.1642
          SWIADDTOCH =       5.2005E-11            SWIADDTOCH =       1.3653E-08

           TOTAL OUT =       4.7880E-03             TOTAL OUT =           0.1642

            IN - OUT =      -6.0536E-09              IN - OUT =      -5.9605E-08

 PERCENT DISCREPANCY =          -0.00     PERCENT DISCREPANCY =          -0.00






         TIME SUMMARY AT END OF TIME STEP   24 IN STRESS PERIOD    1
                    SECONDS     MINUTES      HOURS       DAYS        YEARS
                    -----------------------------------------------------------
   TIME STEP LENGTH  105.00      1.7500     2.91667E-02 1.21528E-03 3.32726E-06
 STRESS PERIOD TIME  2520.0      42.000     0.70000     2.91667E-02 7.98541E-05
         TOTAL TIME  2520.0      42.000     0.70000     2.91667E-02 7.98541E-05
1

 SOLVING FOR HEAD 
     2 EXTERNAL ITERATIONS FOR TIME STEP  25 IN STRESS PERIOD    1

 MAXIMUM HEAD CHANGE FOR EACH ITERATION:

     HEAD CHANGE  LAY,ROW,COL      HEAD CHANGE  LAY,ROW,COL  
 ------------------------------------------------------------
     3.454E-05 (  7,    1, 1000)  -2.110E-07 (  6,    1,  999)



 OUTPUT CONTROL FOR STRESS PERIOD    1   TIME STEP   25
    PRINT BUDGET
    SAVE HEAD FOR ALL LAYERS
 SOLVING FOR ZETA FOR LAYER     6 ZONE     2

     492 UPPER PART EQS.       493 LOWER PART EQS.    BAND WIDTH + 1 =    4
 STRESS PERIOD=  1 TIMESTEP= 25 LAYER=  6 ZONE=  2 ACTIVE CELLS=  985 NUMBER OF EQUATIONS=     985
 UBUDSV SAVING "      ZETASRF  1" ON UNIT 55 AT TIME STEP 25, STRESS PERIOD    1


                      VOLUMETRIC SWI ZONE BUDGET FOR ENTIRE MODEL
                     AT END OF TIME STEP   25 IN STRESS PERIOD   1
                                      ZONE     1
  -----------------------------------------------------------------------------------

        CUMULATIVE VOLUMES      L**3       RATES FOR THIS TIME STEP      L**3/T
        ------------------                 ------------------------

              IN:                                      IN:
              ---                                      ---
             BOUNDARIES =       5.0072E-09            BOUNDARIES =       1.5471E-07
          CONSTANT HEAD =       4.5514E-03         CONSTANT HEAD =           0.1529
            ZONE CHANGE =       4.2563E-04           ZONE CHANGE =       1.1569E-02
       ZONE CHG TIP/TOE =       1.5430E-05      ZONE CHG TIP/TOE =       2.7554E-05
            ZONE MIXING =           0.0000           ZONE MIXING =           0.0000

               TOTAL IN =       4.9924E-03              TOTAL IN =           0.1645

             OUT:                                     OUT:
             ----                                     ----
             BOUNDARIES =       4.9875E-03            BOUNDARIES =           0.1642
          CONSTANT HEAD =           0.0000         CONSTANT HEAD =           0.0000
            ZONE CHANGE =       4.5499E-06           ZONE CHANGE =       3.0183E-04
       ZONE CHG TIP/TOE =       4.6881E-08      ZONE CHG TIP/TOE =       3.5026E-06
            ZONE MIXING =           0.0000           ZONE MIXING =           0.0000

              TOTAL OUT =       4.9921E-03             TOTAL OUT =           0.1645

               IN - OUT =       3.2689E-07              IN - OUT =      -2.9206E-06

    PERCENT DISCREPANCY =           0.01     PERCENT DISCREPANCY =          -0.00



                      VOLUMETRIC SWI ZONE BUDGET FOR ENTIRE MODEL
                     AT END OF TIME STEP   25 IN STRESS PERIOD   1
                                      ZONE     2
  -----------------------------------------------------------------------------------

        CUMULATIVE VOLUMES      L**3       RATES FOR THIS TIME STEP      L**3/T
        ------------------                 ------------------------

              IN:                                      IN:
              ---                                      ---
             BOUNDARIES =       1.9800E-14            BOUNDARIES =       6.6373E-13
          CONSTANT HEAD =       3.6961E-04         CONSTANT HEAD =       1.1276E-02
            ZONE CHANGE =       4.0335E-06           ZONE CHANGE =       2.8762E-04
       ZONE CHG TIP/TOE =       4.6881E-08      ZONE CHG TIP/TOE =       3.5026E-06
            ZONE MIXING =           0.0000           ZONE MIXING =           0.0000

               TOTAL IN =       3.7369E-04              TOTAL IN =       1.1567E-02

             OUT:                                     OUT:
             ----                                     ----
             BOUNDARIES =       1.9745E-14            BOUNDARIES =       5.9117E-13
          CONSTANT HEAD =           0.0000         CONSTANT HEAD =           0.0000
            ZONE CHANGE =       3.5910E-04           ZONE CHANGE =       1.1550E-02
       ZONE CHG TIP/TOE =       1.4913E-05      ZONE CHG TIP/TOE =       1.3338E-05
            ZONE MIXING =           0.0000           ZONE MIXING =           0.0000

              TOTAL OUT =       3.7401E-04             TOTAL OUT =       1.1564E-02

               IN - OUT =      -3.2003E-07              IN - OUT =       3.1451E-06

    PERCENT DISCREPANCY =          -0.09     PERCENT DISCREPANCY =           0.03


 HEAD WILL BE SAVED ON UNIT   51 AT END OF TIME STEP   25, STRESS PERIOD    1
1
  VOLUMETRIC BUDGET FOR ENTIRE MODEL AT END OF TIME STEP   25, STRESS PERIOD   1
  ------------------------------------------------------------------------------

     CUMULATIVE VOLUMES      L**3       RATES FOR THIS TIME STEP      L**3/T
     ------------------                 ------------------------

           IN:                                      IN:
           ---                                      ---
             STORAGE =       6.6520E-05               STORAGE =       1.8401E-05
       CONSTANT HEAD =       4.9210E-03         CONSTANT HEAD =           0.1641
               WELLS =           0.0000                 WELLS =           0.0000
          SWIADDTOCH =           0.0000            SWIADDTOCH =           0.0000

            TOTAL IN =       4.9875E-03              TOTAL IN =           0.1642

          OUT:                                     OUT:
          ----                                     ----
             STORAGE =       1.0115E-10               STORAGE =       6.2710E-09
       CONSTANT HEAD =           0.0000         CONSTANT HEAD =           0.0000
               WELLS =       4.9875E-03                 WELLS =           0.1642
          SWIADDTOCH =       5.2005E-11            SWIADDTOCH =           0.0000

           TOTAL OUT =       4.9875E-03             TOTAL OUT =           0.1642

            IN - OUT =      -6.0536E-09              IN - OUT =      -4.4703E-08

 PERCENT DISCREPANCY =          -0.00     PERCENT DISCREPANCY =          -0.00






         TIME SUMMARY AT END OF TIME STEP   25 IN STRESS PERIOD    1
                    SECONDS     MINUTES      HOURS       DAYS        YEARS
                    -----------------------------------------------------------
   TIME STEP LENGTH  105.00      1.7500     2.91667E-02 1.21528E-03 3.32726E-06
 STRESS PERIOD TIME  2625.0      43.750     0.72917     3.03820E-02 8.31814E-05
         TOTAL TIME  2625.0      43.750     0.72917     3.03820E-02 8.31814E-05
1

 SOLVING FOR HEAD 
     2 EXTERNAL ITERATIONS FOR TIME STEP  26 IN STRESS PERIOD    1

 MAXIMUM HEAD CHANGE FOR EACH ITERATION:

     HEAD CHANGE  LAY,ROW,COL      HEAD CHANGE  LAY,ROW,COL  
 ------------------------------------------------------------
     3.415E-05 (  7,    1, 1000)  -2.131E-07 (  6,    1, 1000)



 OUTPUT CONTROL FOR STRESS PERIOD    1   TIME STEP   26
    PRINT BUDGET
    SAVE HEAD FOR ALL LAYERS
 SOLVING FOR ZETA FOR LAYER     6 ZONE     2

     492 UPPER PART EQS.       493 LOWER PART EQS.    BAND WIDTH + 1 =    3
 STRESS PERIOD=  1 TIMESTEP= 26 LAYER=  6 ZONE=  2 ACTIVE CELLS=  985 NUMBER OF EQUATIONS=     985
 UBUDSV SAVING "      ZETASRF  1" ON UNIT 55 AT TIME STEP 26, STRESS PERIOD    1


                      VOLUMETRIC SWI ZONE BUDGET FOR ENTIRE MODEL
                     AT END OF TIME STEP   26 IN STRESS PERIOD   1
                                      ZONE     1
  -----------------------------------------------------------------------------------

        CUMULATIVE VOLUMES      L**3       RATES FOR THIS TIME STEP      L**3/T
        ------------------                 ------------------------

              IN:                                      IN:
              ---                                      ---
             BOUNDARIES =       5.2224E-09            BOUNDARIES =       1.7709E-07
          CONSTANT HEAD =       4.7372E-03         CONSTANT HEAD =           0.1529
            ZONE CHANGE =       4.3959E-04           ZONE CHANGE =       1.1490E-02
       ZONE CHG TIP/TOE =       1.5464E-05      ZONE CHG TIP/TOE =       2.8166E-05
            ZONE MIXING =           0.0000           ZONE MIXING =           0.0000

               TOTAL IN =       5.1923E-03              TOTAL IN =           0.1645

             OUT:                                     OUT:
             ----                                     ----
             BOUNDARIES =       5.1870E-03            BOUNDARIES =           0.1642
          CONSTANT HEAD =           0.0000         CONSTANT HEAD =           0.0000
            ZONE CHANGE =       4.9110E-06           ZONE CHANGE =       2.9716E-04
       ZONE CHG TIP/TOE =       4.9731E-08      ZONE CHG TIP/TOE =       2.3446E-06
            ZONE MIXING =           0.0000           ZONE MIXING =           0.0000

              TOTAL OUT =       5.1920E-03             TOTAL OUT =           0.1645

               IN - OUT =       3.2270E-07              IN - OUT =      -3.1292E-06

    PERCENT DISCREPANCY =           0.01     PERCENT DISCREPANCY =          -0.00



                      VOLUMETRIC SWI ZONE BUDGET FOR ENTIRE MODEL
                     AT END OF TIME STEP   26 IN STRESS PERIOD   1
                                      ZONE     2
  -----------------------------------------------------------------------------------

        CUMULATIVE VOLUMES      L**3       RATES FOR THIS TIME STEP      L**3/T
        ------------------                 ------------------------

              IN:                                      IN:
              ---                                      ---
             BOUNDARIES =       2.0567E-14            BOUNDARIES =       6.3165E-13
          CONSTANT HEAD =       3.8323E-04         CONSTANT HEAD =       1.1203E-02
            ZONE CHANGE =       4.3792E-06           ZONE CHANGE =       2.8448E-04
       ZONE CHG TIP/TOE =       4.9731E-08      ZONE CHG TIP/TOE =       2.3446E-06
            ZONE MIXING =           0.0000           ZONE MIXING =           0.0000

               TOTAL IN =       3.8766E-04              TOTAL IN =       1.1490E-02

             OUT:                                     OUT:
             ----                                     ----
             BOUNDARIES =       2.0586E-14            BOUNDARIES =       6.9173E-13
          CONSTANT HEAD =           0.0000         CONSTANT HEAD =           0.0000
            ZONE CHANGE =       3.7304E-04           ZONE CHANGE =       1.1471E-02
       ZONE CHG TIP/TOE =       1.4932E-05      ZONE CHG TIP/TOE =       1.5484E-05
            ZONE MIXING =           0.0000           ZONE MIXING =           0.0000

              TOTAL OUT =       3.8797E-04             TOTAL OUT =       1.1487E-02

               IN - OUT =      -3.1595E-07              IN - OUT =       3.3667E-06

    PERCENT DISCREPANCY =          -0.08     PERCENT DISCREPANCY =           0.03


 HEAD WILL BE SAVED ON UNIT   51 AT END OF TIME STEP   26, STRESS PERIOD    1
1
  VOLUMETRIC BUDGET FOR ENTIRE MODEL AT END OF TIME STEP   26, STRESS PERIOD   1
  ------------------------------------------------------------------------------

     CUMULATIVE VOLUMES      L**3       RATES FOR THIS TIME STEP      L**3/T
     ------------------                 ------------------------

           IN:                                      IN:
           ---                                      ---
             STORAGE =       6.6543E-05               STORAGE =       1.8508E-05
       CONSTANT HEAD =       5.1205E-03         CONSTANT HEAD =           0.1641
               WELLS =           0.0000                 WELLS =           0.0000
          SWIADDTOCH =           0.0000            SWIADDTOCH =           0.0000

            TOTAL IN =       5.1870E-03              TOTAL IN =           0.1642

          OUT:                                     OUT:
          ----                                     ----
             STORAGE =       1.0536E-10               STORAGE =       3.4696E-09
       CONSTANT HEAD =           0.0000         CONSTANT HEAD =           0.0000
               WELLS =       5.1870E-03                 WELLS =           0.1642
          SWIADDTOCH =       5.2005E-11            SWIADDTOCH =           0.0000

           TOTAL OUT =       5.1870E-03             TOTAL OUT =           0.1642

            IN - OUT =      -6.0536E-09              IN - OUT =      -8.9407E-08

 PERCENT DISCREPANCY =          -0.00     PERCENT DISCREPANCY =          -0.00






         TIME SUMMARY AT END OF TIME STEP   26 IN STRESS PERIOD    1
                    SECONDS     MINUTES      HOURS       DAYS        YEARS
                    -----------------------------------------------------------
   TIME STEP LENGTH  105.00      1.7500     2.91667E-02 1.21528E-03 3.32726E-06
 STRESS PERIOD TIME  2730.0      45.500     0.75833     3.15973E-02 8.65086E-05
         TOTAL TIME  2730.0      45.500     0.75833     3.15973E-02 8.65086E-05
1

 SOLVING FOR HEAD 
     2 EXTERNAL ITERATIONS FOR TIME STEP  27 IN STRESS PERIOD    1

 MAXIMUM HEAD CHANGE FOR EACH ITERATION:

     HEAD CHANGE  LAY,ROW,COL      HEAD CHANGE  LAY,ROW,COL  
 ------------------------------------------------------------
     3.374E-05 (  7,    1, 1000)  -2.158E-07 (  6,    1,  999)



 OUTPUT CONTROL FOR STRESS PERIOD    1   TIME STEP   27
    PRINT BUDGET
    SAVE HEAD FOR ALL LAYERS
 SOLVING FOR ZETA FOR LAYER     6 ZONE     2

     493 UPPER PART EQS.       492 LOWER PART EQS.    BAND WIDTH + 1 =    5
 STRESS PERIOD=  1 TIMESTEP= 27 LAYER=  6 ZONE=  2 ACTIVE CELLS=  985 NUMBER OF EQUATIONS=     985
 UBUDSV SAVING "      ZETASRF  1" ON UNIT 55 AT TIME STEP 27, STRESS PERIOD    1


                      VOLUMETRIC SWI ZONE BUDGET FOR ENTIRE MODEL
                     AT END OF TIME STEP   27 IN STRESS PERIOD   1
                                      ZONE     1
  -----------------------------------------------------------------------------------

        CUMULATIVE VOLUMES      L**3       RATES FOR THIS TIME STEP      L**3/T
        ------------------                 ------------------------

              IN:                                      IN:
              ---                                      ---
             BOUNDARIES =       5.4307E-09            BOUNDARIES =       1.7140E-07
          CONSTANT HEAD =       4.9232E-03         CONSTANT HEAD =           0.1530
            ZONE CHANGE =       4.5348E-04           ZONE CHANGE =       1.1428E-02
       ZONE CHG TIP/TOE =       1.5495E-05      ZONE CHG TIP/TOE =       2.5951E-05
            ZONE MIXING =           0.0000           ZONE MIXING =           0.0000

               TOTAL IN =       5.3922E-03              TOTAL IN =           0.1645

             OUT:                                     OUT:
             ----                                     ----
             BOUNDARIES =       5.3865E-03            BOUNDARIES =           0.1642
          CONSTANT HEAD =           0.0000         CONSTANT HEAD =           0.0000
            ZONE CHANGE =       5.2820E-06           ZONE CHANGE =       3.0522E-04
       ZONE CHG TIP/TOE =       5.3802E-08      ZONE CHG TIP/TOE =       3.3499E-06
            ZONE MIXING =           0.0000           ZONE MIXING =           0.0000

              TOTAL OUT =       5.3918E-03             TOTAL OUT =           0.1645

               IN - OUT =       3.1758E-07              IN - OUT =      -4.3362E-06

    PERCENT DISCREPANCY =           0.01     PERCENT DISCREPANCY =          -0.00



                      VOLUMETRIC SWI ZONE BUDGET FOR ENTIRE MODEL
                     AT END OF TIME STEP   27 IN STRESS PERIOD   1
                                      ZONE     2
  -----------------------------------------------------------------------------------

        CUMULATIVE VOLUMES      L**3       RATES FOR THIS TIME STEP      L**3/T
        ------------------                 ------------------------

              IN:                                      IN:
              ---                                      ---
             BOUNDARIES =       2.1354E-14            BOUNDARIES =       6.4721E-13
          CONSTANT HEAD =       3.9676E-04         CONSTANT HEAD =       1.1131E-02
            ZONE CHANGE =       4.7350E-06           ZONE CHANGE =       2.9275E-04
       ZONE CHG TIP/TOE =       5.3802E-08      ZONE CHG TIP/TOE =       3.3499E-06
            ZONE MIXING =           0.0000           ZONE MIXING =           0.0000

               TOTAL IN =       4.0154E-04              TOTAL IN =       1.1427E-02

             OUT:                                     OUT:
             ----                                     ----
             BOUNDARIES =       2.1322E-14            BOUNDARIES =       6.0608E-13
          CONSTANT HEAD =           0.0000         CONSTANT HEAD =           0.0000
            ZONE CHANGE =       3.8691E-04           ZONE CHANGE =       1.1409E-02
       ZONE CHG TIP/TOE =       1.4948E-05      ZONE CHG TIP/TOE =       1.3478E-05
            ZONE MIXING =           0.0000           ZONE MIXING =           0.0000

              TOTAL OUT =       4.0186E-04             TOTAL OUT =       1.1423E-02

               IN - OUT =      -3.1036E-07              IN - OUT =       4.5691E-06

    PERCENT DISCREPANCY =          -0.08     PERCENT DISCREPANCY =           0.04


 HEAD WILL BE SAVED ON UNIT   51 AT END OF TIME STEP   27, STRESS PERIOD    1
1
  VOLUMETRIC BUDGET FOR ENTIRE MODEL AT END OF TIME STEP   27, STRESS PERIOD   1
  ------------------------------------------------------------------------------

     CUMULATIVE VOLUMES      L**3       RATES FOR THIS TIME STEP      L**3/T
     ------------------                 ------------------------

           IN:                                      IN:
           ---                                      ---
             STORAGE =       6.6565E-05               STORAGE =       1.8660E-05
       CONSTANT HEAD =       5.3199E-03         CONSTANT HEAD =           0.1641
               WELLS =           0.0000                 WELLS =           0.0000
          SWIADDTOCH =           0.0000            SWIADDTOCH =           0.0000

            TOTAL IN =       5.3865E-03              TOTAL IN =           0.1642

          OUT:                                     OUT:
          ----                                     ----
             STORAGE =       1.1070E-10               STORAGE =       4.3934E-09
       CONSTANT HEAD =           0.0000         CONSTANT HEAD =           0.0000
               WELLS =       5.3865E-03                 WELLS =           0.1642
          SWIADDTOCH =       5.2005E-11            SWIADDTOCH =           0.0000

           TOTAL OUT =       5.3865E-03             TOTAL OUT =           0.1642

            IN - OUT =      -6.5193E-09              IN - OUT =      -8.9407E-08

 PERCENT DISCREPANCY =          -0.00     PERCENT DISCREPANCY =          -0.00






         TIME SUMMARY AT END OF TIME STEP   27 IN STRESS PERIOD    1
                    SECONDS     MINUTES      HOURS       DAYS        YEARS
                    -----------------------------------------------------------
   TIME STEP LENGTH  105.00      1.7500     2.91667E-02 1.21528E-03 3.32726E-06
 STRESS PERIOD TIME  2835.0      47.250     0.78750     3.28125E-02 8.98359E-05
         TOTAL TIME  2835.0      47.250     0.78750     3.28125E-02 8.98359E-05
1

 SOLVING FOR HEAD 
     2 EXTERNAL ITERATIONS FOR TIME STEP  28 IN STRESS PERIOD    1

 MAXIMUM HEAD CHANGE FOR EACH ITERATION:

     HEAD CHANGE  LAY,ROW,COL      HEAD CHANGE  LAY,ROW,COL  
 ------------------------------------------------------------
     3.335E-05 (  7,    1, 1000)  -2.180E-07 (  6,    1, 1000)



 OUTPUT CONTROL FOR STRESS PERIOD    1   TIME STEP   28
    PRINT BUDGET
    SAVE HEAD FOR ALL LAYERS
 SOLVING FOR ZETA FOR LAYER     6 ZONE     2

     493 UPPER PART EQS.       493 LOWER PART EQS.    BAND WIDTH + 1 =    3
 STRESS PERIOD=  1 TIMESTEP= 28 LAYER=  6 ZONE=  2 ACTIVE CELLS=  986 NUMBER OF EQUATIONS=     986
 UBUDSV SAVING "      ZETASRF  1" ON UNIT 55 AT TIME STEP 28, STRESS PERIOD    1


                      VOLUMETRIC SWI ZONE BUDGET FOR ENTIRE MODEL
                     AT END OF TIME STEP   28 IN STRESS PERIOD   1
                                      ZONE     1
  -----------------------------------------------------------------------------------

        CUMULATIVE VOLUMES      L**3       RATES FOR THIS TIME STEP      L**3/T
        ------------------                 ------------------------

              IN:                                      IN:
              ---                                      ---
             BOUNDARIES =       5.6404E-09            BOUNDARIES =       1.7258E-07
          CONSTANT HEAD =       5.1092E-03         CONSTANT HEAD =           0.1531
            ZONE CHANGE =       4.6727E-04           ZONE CHANGE =       1.1344E-02
       ZONE CHG TIP/TOE =       1.5530E-05      ZONE CHG TIP/TOE =       2.8484E-05
            ZONE MIXING =           0.0000           ZONE MIXING =           0.0000

               TOTAL IN =       5.5920E-03              TOTAL IN =           0.1645

             OUT:                                     OUT:
             ----                                     ----
             BOUNDARIES =       5.5860E-03            BOUNDARIES =           0.1642
          CONSTANT HEAD =           0.0000         CONSTANT HEAD =           0.0000
            ZONE CHANGE =       5.6409E-06           ZONE CHANGE =       2.9534E-04
       ZONE CHG TIP/TOE =       5.7485E-08      ZONE CHG TIP/TOE =       3.0308E-06
            ZONE MIXING =           0.0000           ZONE MIXING =           0.0000

              TOTAL OUT =       5.5917E-03             TOTAL OUT =           0.1645

               IN - OUT =       3.1246E-07              IN - OUT =      -4.5747E-06

    PERCENT DISCREPANCY =           0.01     PERCENT DISCREPANCY =          -0.00



                      VOLUMETRIC SWI ZONE BUDGET FOR ENTIRE MODEL
                     AT END OF TIME STEP   28 IN STRESS PERIOD   1
                                      ZONE     2
  -----------------------------------------------------------------------------------

        CUMULATIVE VOLUMES      L**3       RATES FOR THIS TIME STEP      L**3/T
        ------------------                 ------------------------

              IN:                                      IN:
              ---                                      ---
             BOUNDARIES =       2.2160E-14            BOUNDARIES =       6.6302E-13
          CONSTANT HEAD =       4.1020E-04         CONSTANT HEAD =       1.1060E-02
            ZONE CHANGE =       5.0765E-06           ZONE CHANGE =       2.8096E-04
       ZONE CHG TIP/TOE =       5.7485E-08      ZONE CHG TIP/TOE =       3.0308E-06
            ZONE MIXING =           0.0000           ZONE MIXING =           0.0000

               TOTAL IN =       4.1533E-04              TOTAL IN =       1.1344E-02

             OUT:                                     OUT:
             ----                                     ----
             BOUNDARIES =       2.2099E-14            BOUNDARIES =       6.3884E-13
          CONSTANT HEAD =           0.0000         CONSTANT HEAD =           0.0000
            ZONE CHANGE =       4.0067E-04           ZONE CHANGE =       1.1325E-02
       ZONE CHG TIP/TOE =       1.4965E-05      ZONE CHG TIP/TOE =       1.4103E-05
            ZONE MIXING =           0.0000           ZONE MIXING =           0.0000

              TOTAL OUT =       4.1564E-04             TOTAL OUT =       1.1339E-02

               IN - OUT =      -3.0454E-07              IN - OUT =       4.8224E-06

    PERCENT DISCREPANCY =          -0.07     PERCENT DISCREPANCY =           0.04


 HEAD WILL BE SAVED ON UNIT   51 AT END OF TIME STEP   28, STRESS PERIOD    1
1
  VOLUMETRIC BUDGET FOR ENTIRE MODEL AT END OF TIME STEP   28, STRESS PERIOD   1
  ------------------------------------------------------------------------------

     CUMULATIVE VOLUMES      L**3       RATES FOR THIS TIME STEP      L**3/T
     ------------------                 ------------------------

           IN:                                      IN:
           ---                                      ---
             STORAGE =       6.6588E-05               STORAGE =       1.8791E-05
       CONSTANT HEAD =       5.5194E-03         CONSTANT HEAD =           0.1641
               WELLS =           0.0000                 WELLS =           0.0000
          SWIADDTOCH =           0.0000            SWIADDTOCH =           0.0000

            TOTAL IN =       5.5860E-03              TOTAL IN =           0.1642

          OUT:                                     OUT:
          ----                                     ----
             STORAGE =       1.1716E-10               STORAGE =       5.3177E-09
       CONSTANT HEAD =           0.0000         CONSTANT HEAD =           0.0000
               WELLS =       5.5860E-03                 WELLS =           0.1642
          SWIADDTOCH =       5.2005E-11            SWIADDTOCH =           0.0000

           TOTAL OUT =       5.5860E-03             TOTAL OUT =           0.1642

            IN - OUT =      -6.9849E-09              IN - OUT =      -1.0431E-07

 PERCENT DISCREPANCY =          -0.00     PERCENT DISCREPANCY =          -0.00






         TIME SUMMARY AT END OF TIME STEP   28 IN STRESS PERIOD    1
                    SECONDS     MINUTES      HOURS       DAYS        YEARS
                    -----------------------------------------------------------
   TIME STEP LENGTH  105.00      1.7500     2.91667E-02 1.21528E-03 3.32726E-06
 STRESS PERIOD TIME  2940.0      49.000     0.81667     3.40278E-02 9.31631E-05
         TOTAL TIME  2940.0      49.000     0.81667     3.40278E-02 9.31631E-05
1

 SOLVING FOR HEAD 
     2 EXTERNAL ITERATIONS FOR TIME STEP  29 IN STRESS PERIOD    1

 MAXIMUM HEAD CHANGE FOR EACH ITERATION:

     HEAD CHANGE  LAY,ROW,COL      HEAD CHANGE  LAY,ROW,COL  
 ------------------------------------------------------------
     3.299E-05 (  7,    1, 1000)  -2.188E-07 (  6,    1,  999)



 OUTPUT CONTROL FOR STRESS PERIOD    1   TIME STEP   29
    PRINT BUDGET
    SAVE HEAD FOR ALL LAYERS
 SOLVING FOR ZETA FOR LAYER     6 ZONE     2

     492 UPPER PART EQS.       495 LOWER PART EQS.    BAND WIDTH + 1 =    3
 STRESS PERIOD=  1 TIMESTEP= 29 LAYER=  6 ZONE=  2 ACTIVE CELLS=  987 NUMBER OF EQUATIONS=     987
 UBUDSV SAVING "      ZETASRF  1" ON UNIT 55 AT TIME STEP 29, STRESS PERIOD    1


                      VOLUMETRIC SWI ZONE BUDGET FOR ENTIRE MODEL
                     AT END OF TIME STEP   29 IN STRESS PERIOD   1
                                      ZONE     1
  -----------------------------------------------------------------------------------

        CUMULATIVE VOLUMES      L**3       RATES FOR THIS TIME STEP      L**3/T
        ------------------                 ------------------------

              IN:                                      IN:
              ---                                      ---
             BOUNDARIES =       5.8486E-09            BOUNDARIES =       1.7125E-07
          CONSTANT HEAD =       5.2953E-03         CONSTANT HEAD =           0.1532
            ZONE CHANGE =       4.8099E-04           ZONE CHANGE =       1.1292E-02
       ZONE CHG TIP/TOE =       1.5569E-05      ZONE CHG TIP/TOE =       3.2125E-05
            ZONE MIXING =           0.0000           ZONE MIXING =           0.0000

               TOTAL IN =       5.7919E-03              TOTAL IN =           0.1645

             OUT:                                     OUT:
             ----                                     ----
             BOUNDARIES =       5.7855E-03            BOUNDARIES =           0.1642
          CONSTANT HEAD =           0.0000         CONSTANT HEAD =           0.0000
            ZONE CHANGE =       6.0219E-06           ZONE CHANGE =       3.1355E-04
       ZONE CHG TIP/TOE =       5.9980E-08      ZONE CHG TIP/TOE =       2.0525E-06
            ZONE MIXING =           0.0000           ZONE MIXING =           0.0000

              TOTAL OUT =       5.7916E-03             TOTAL OUT =           0.1645

               IN - OUT =       3.1432E-07              IN - OUT =       1.0282E-06

    PERCENT DISCREPANCY =           0.01     PERCENT DISCREPANCY =           0.00



                      VOLUMETRIC SWI ZONE BUDGET FOR ENTIRE MODEL
                     AT END OF TIME STEP   29 IN STRESS PERIOD   1
                                      ZONE     2
  -----------------------------------------------------------------------------------

        CUMULATIVE VOLUMES      L**3       RATES FOR THIS TIME STEP      L**3/T
        ------------------                 ------------------------

              IN:                                      IN:
              ---                                      ---
             BOUNDARIES =       2.2922E-14            BOUNDARIES =       6.2735E-13
          CONSTANT HEAD =       4.2355E-04         CONSTANT HEAD =       1.0989E-02
            ZONE CHANGE =       5.4354E-06           ZONE CHANGE =       2.9539E-04
       ZONE CHG TIP/TOE =       5.9980E-08      ZONE CHG TIP/TOE =       2.0525E-06
            ZONE MIXING =           0.0000           ZONE MIXING =           0.0000

               TOTAL IN =       4.2905E-04              TOTAL IN =       1.1286E-02

             OUT:                                     OUT:
             ----                                     ----
             BOUNDARIES =       2.2870E-14            BOUNDARIES =       6.3513E-13
          CONSTANT HEAD =           0.0000         CONSTANT HEAD =           0.0000
            ZONE CHANGE =       4.1437E-04           ZONE CHANGE =       1.1273E-02
       ZONE CHG TIP/TOE =       1.4982E-05      ZONE CHG TIP/TOE =       1.3964E-05
            ZONE MIXING =           0.0000           ZONE MIXING =           0.0000

              TOTAL OUT =       4.2935E-04             TOTAL OUT =       1.1287E-02

               IN - OUT =      -3.0547E-07              IN - OUT =      -7.8976E-07

    PERCENT DISCREPANCY =          -0.07     PERCENT DISCREPANCY =          -0.01


 HEAD WILL BE SAVED ON UNIT   51 AT END OF TIME STEP   29, STRESS PERIOD    1
1
  VOLUMETRIC BUDGET FOR ENTIRE MODEL AT END OF TIME STEP   29, STRESS PERIOD   1
  ------------------------------------------------------------------------------

     CUMULATIVE VOLUMES      L**3       RATES FOR THIS TIME STEP      L**3/T
     ------------------                 ------------------------

           IN:                                      IN:
           ---                                      ---
             STORAGE =       6.6611E-05               STORAGE =       1.8860E-05
       CONSTANT HEAD =       5.7189E-03         CONSTANT HEAD =           0.1641
               WELLS =           0.0000                 WELLS =           0.0000
          SWIADDTOCH =           0.0000            SWIADDTOCH =           0.0000

            TOTAL IN =       5.7855E-03              TOTAL IN =           0.1642

          OUT:                                     OUT:
          ----                                     ----
             STORAGE =       1.2475E-10               STORAGE =       6.2431E-09
       CONSTANT HEAD =           0.0000         CONSTANT HEAD =           0.0000
               WELLS =       5.7855E-03                 WELLS =           0.1642
          SWIADDTOCH =       5.2005E-11            SWIADDTOCH =           0.0000

           TOTAL OUT =       5.7855E-03             TOTAL OUT =           0.1642

            IN - OUT =      -6.9849E-09              IN - OUT =      -8.9407E-08

 PERCENT DISCREPANCY =          -0.00     PERCENT DISCREPANCY =          -0.00






         TIME SUMMARY AT END OF TIME STEP   29 IN STRESS PERIOD    1
                    SECONDS     MINUTES      HOURS       DAYS        YEARS
                    -----------------------------------------------------------
   TIME STEP LENGTH  105.00      1.7500     2.91667E-02 1.21528E-03 3.32726E-06
 STRESS PERIOD TIME  3045.0      50.750     0.84583     3.52431E-02 9.64904E-05
         TOTAL TIME  3045.0      50.750     0.84583     3.52431E-02 9.64904E-05
1

 SOLVING FOR HEAD 
     2 EXTERNAL ITERATIONS FOR TIME STEP  30 IN STRESS PERIOD    1

 MAXIMUM HEAD CHANGE FOR EACH ITERATION:

     HEAD CHANGE  LAY,ROW,COL      HEAD CHANGE  LAY,ROW,COL  
 ------------------------------------------------------------
     3.249E-05 (  7,    1, 1000)  -2.235E-07 (  6,    1, 1000)



 OUTPUT CONTROL FOR STRESS PERIOD    1   TIME STEP   30
    PRINT BUDGET
    SAVE HEAD FOR ALL LAYERS
 SOLVING FOR ZETA FOR LAYER     6 ZONE     2

     495 UPPER PART EQS.       493 LOWER PART EQS.    BAND WIDTH + 1 =    4
 STRESS PERIOD=  1 TIMESTEP= 30 LAYER=  6 ZONE=  2 ACTIVE CELLS=  988 NUMBER OF EQUATIONS=     988
 UBUDSV SAVING "      ZETASRF  1" ON UNIT 55 AT TIME STEP 30, STRESS PERIOD    1


                      VOLUMETRIC SWI ZONE BUDGET FOR ENTIRE MODEL
                     AT END OF TIME STEP   30 IN STRESS PERIOD   1
                                      ZONE     1
  -----------------------------------------------------------------------------------

        CUMULATIVE VOLUMES      L**3       RATES FOR THIS TIME STEP      L**3/T
        ------------------                 ------------------------

              IN:                                      IN:
              ---                                      ---
             BOUNDARIES =       6.0421E-09            BOUNDARIES =       1.5925E-07
          CONSTANT HEAD =       5.4816E-03         CONSTANT HEAD =           0.1532
            ZONE CHANGE =       4.9461E-04           ZONE CHANGE =       1.1208E-02
       ZONE CHG TIP/TOE =       1.5607E-05      ZONE CHG TIP/TOE =       3.1542E-05
            ZONE MIXING =           0.0000           ZONE MIXING =           0.0000

               TOTAL IN =       5.9918E-03              TOTAL IN =           0.1645

             OUT:                                     OUT:
             ----                                     ----
             BOUNDARIES =       5.9850E-03            BOUNDARIES =           0.1642
          CONSTANT HEAD =           0.0000         CONSTANT HEAD =           0.0000
            ZONE CHANGE =       6.3850E-06           ZONE CHANGE =       2.9878E-04
       ZONE CHG TIP/TOE =       6.3366E-08      ZONE CHG TIP/TOE =       2.7866E-06
            ZONE MIXING =           0.0000           ZONE MIXING =           0.0000

              TOTAL OUT =       5.9915E-03             TOTAL OUT =           0.1645

               IN - OUT =       3.1479E-07              IN - OUT =       4.9174E-07

    PERCENT DISCREPANCY =           0.01     PERCENT DISCREPANCY =           0.00



                      VOLUMETRIC SWI ZONE BUDGET FOR ENTIRE MODEL
                     AT END OF TIME STEP   30 IN STRESS PERIOD   1
                                      ZONE     2
  -----------------------------------------------------------------------------------

        CUMULATIVE VOLUMES      L**3       RATES FOR THIS TIME STEP      L**3/T
        ------------------                 ------------------------

              IN:                                      IN:
              ---                                      ---
             BOUNDARIES =       2.3680E-14            BOUNDARIES =       6.2373E-13
          CONSTANT HEAD =       4.3682E-04         CONSTANT HEAD =       1.0918E-02
            ZONE CHANGE =       5.7790E-06           ZONE CHANGE =       2.8271E-04
       ZONE CHG TIP/TOE =       6.3366E-08      ZONE CHG TIP/TOE =       2.7866E-06
            ZONE MIXING =           0.0000           ZONE MIXING =           0.0000

               TOTAL IN =       4.4266E-04              TOTAL IN =       1.1204E-02

             OUT:                                     OUT:
             ----                                     ----
             BOUNDARIES =       2.3673E-14            BOUNDARIES =       6.6037E-13
          CONSTANT HEAD =           0.0000         CONSTANT HEAD =           0.0000
            ZONE CHANGE =       4.2797E-04           ZONE CHANGE =       1.1189E-02
       ZONE CHG TIP/TOE =       1.5001E-05      ZONE CHG TIP/TOE =       1.5474E-05
            ZONE MIXING =           0.0000           ZONE MIXING =           0.0000

              TOTAL OUT =       4.4297E-04             TOTAL OUT =       1.1204E-02

               IN - OUT =      -3.0579E-07              IN - OUT =      -2.6822E-07

    PERCENT DISCREPANCY =          -0.07     PERCENT DISCREPANCY =          -0.00


 HEAD WILL BE SAVED ON UNIT   51 AT END OF TIME STEP   30, STRESS PERIOD    1
1
  VOLUMETRIC BUDGET FOR ENTIRE MODEL AT END OF TIME STEP   30, STRESS PERIOD   1
  ------------------------------------------------------------------------------

     CUMULATIVE VOLUMES      L**3       RATES FOR THIS TIME STEP      L**3/T
     ------------------                 ------------------------

           IN:                                      IN:
           ---                                      ---
             STORAGE =       6.6634E-05               STORAGE =       1.9102E-05
       CONSTANT HEAD =       5.9184E-03         CONSTANT HEAD =           0.1641
               WELLS =           0.0000                 WELLS =           0.0000
          SWIADDTOCH =           0.0000            SWIADDTOCH =           0.0000

            TOTAL IN =       5.9850E-03              TOTAL IN =           0.1642

          OUT:                                     OUT:
          ----                                     ----
             STORAGE =       1.3119E-10               STORAGE =       5.3019E-09
       CONSTANT HEAD =           0.0000         CONSTANT HEAD =           0.0000
               WELLS =       5.9850E-03                 WELLS =           0.1642
          SWIADDTOCH =       7.1554E-11            SWIADDTOCH =       1.6086E-08

           TOTAL OUT =       5.9850E-03             TOTAL OUT =           0.1642

            IN - OUT =      -7.4506E-09              IN - OUT =      -7.4506E-08

 PERCENT DISCREPANCY =          -0.00     PERCENT DISCREPANCY =          -0.00






         TIME SUMMARY AT END OF TIME STEP   30 IN STRESS PERIOD    1
                    SECONDS     MINUTES      HOURS       DAYS        YEARS
                    -----------------------------------------------------------
   TIME STEP LENGTH  105.00      1.7500     2.91667E-02 1.21528E-03 3.32726E-06
 STRESS PERIOD TIME  3150.0      52.500     0.87500     3.64584E-02 9.98176E-05
         TOTAL TIME  3150.0      52.500     0.87500     3.64584E-02 9.98176E-05
1

 SOLVING FOR HEAD 
     2 EXTERNAL ITERATIONS FOR TIME STEP  31 IN STRESS PERIOD    1

 MAXIMUM HEAD CHANGE FOR EACH ITERATION:

     HEAD CHANGE  LAY,ROW,COL      HEAD CHANGE  LAY,ROW,COL  
 ------------------------------------------------------------
     3.225E-05 (  7,    1, 1000)  -2.211E-07 (  6,    1, 1000)



 OUTPUT CONTROL FOR STRESS PERIOD    1   TIME STEP   31
    PRINT BUDGET
    SAVE HEAD FOR ALL LAYERS
 SOLVING FOR ZETA FOR LAYER     6 ZONE     2

     493 UPPER PART EQS.       495 LOWER PART EQS.    BAND WIDTH + 1 =    4
 STRESS PERIOD=  1 TIMESTEP= 31 LAYER=  6 ZONE=  2 ACTIVE CELLS=  988 NUMBER OF EQUATIONS=     988
 UBUDSV SAVING "      ZETASRF  1" ON UNIT 55 AT TIME STEP 31, STRESS PERIOD    1


                      VOLUMETRIC SWI ZONE BUDGET FOR ENTIRE MODEL
                     AT END OF TIME STEP   31 IN STRESS PERIOD   1
                                      ZONE     1
  -----------------------------------------------------------------------------------

        CUMULATIVE VOLUMES      L**3       RATES FOR THIS TIME STEP      L**3/T
        ------------------                 ------------------------

              IN:                                      IN:
              ---                                      ---
             BOUNDARIES =       6.2434E-09            BOUNDARIES =       1.6567E-07
          CONSTANT HEAD =       5.6678E-03         CONSTANT HEAD =           0.1533
            ZONE CHANGE =       5.0821E-04           ZONE CHANGE =       1.1187E-02
       ZONE CHG TIP/TOE =       1.5648E-05      ZONE CHG TIP/TOE =       3.3724E-05
            ZONE MIXING =           0.0000           ZONE MIXING =           0.0000

               TOTAL IN =       6.1917E-03              TOTAL IN =           0.1645

             OUT:                                     OUT:
             ----                                     ----
             BOUNDARIES =       6.1845E-03            BOUNDARIES =           0.1642
          CONSTANT HEAD =           0.0000         CONSTANT HEAD =           0.0000
            ZONE CHANGE =       6.8066E-06           ZONE CHANGE =       3.4690E-04
       ZONE CHG TIP/TOE =       6.5366E-08      ZONE CHG TIP/TOE =       1.6455E-06
            ZONE MIXING =           0.0000           ZONE MIXING =           0.0000

              TOTAL OUT =       6.1914E-03             TOTAL OUT =           0.1645

               IN - OUT =       3.2177E-07              IN - OUT =       5.7369E-06

    PERCENT DISCREPANCY =           0.01     PERCENT DISCREPANCY =           0.00



                      VOLUMETRIC SWI ZONE BUDGET FOR ENTIRE MODEL
                     AT END OF TIME STEP   31 IN STRESS PERIOD   1
                                      ZONE     2
  -----------------------------------------------------------------------------------

        CUMULATIVE VOLUMES      L**3       RATES FOR THIS TIME STEP      L**3/T
        ------------------                 ------------------------

              IN:                                      IN:
              ---                                      ---
             BOUNDARIES =       2.4470E-14            BOUNDARIES =       6.5044E-13
          CONSTANT HEAD =       4.5000E-04         CONSTANT HEAD =       1.0847E-02
            ZONE CHANGE =       6.1740E-06           ZONE CHANGE =       3.2501E-04
       ZONE CHG TIP/TOE =       6.5366E-08      ZONE CHG TIP/TOE =       1.6455E-06
            ZONE MIXING =           0.0000           ZONE MIXING =           0.0000

               TOTAL IN =       4.5624E-04              TOTAL IN =       1.1174E-02

             OUT:                                     OUT:
             ----                                     ----
             BOUNDARIES =       2.4451E-14            BOUNDARIES =       6.4022E-13
          CONSTANT HEAD =           0.0000         CONSTANT HEAD =           0.0000
            ZONE CHANGE =       4.4154E-04           ZONE CHANGE =       1.1168E-02
       ZONE CHG TIP/TOE =       1.5016E-05      ZONE CHG TIP/TOE =       1.1836E-05
            ZONE MIXING =           0.0000           ZONE MIXING =           0.0000

              TOTAL OUT =       4.5655E-04             TOTAL OUT =       1.1180E-02

               IN - OUT =      -3.1249E-07              IN - OUT =      -5.5227E-06

    PERCENT DISCREPANCY =          -0.07     PERCENT DISCREPANCY =          -0.05


 HEAD WILL BE SAVED ON UNIT   51 AT END OF TIME STEP   31, STRESS PERIOD    1
1
  VOLUMETRIC BUDGET FOR ENTIRE MODEL AT END OF TIME STEP   31, STRESS PERIOD   1
  ------------------------------------------------------------------------------

     CUMULATIVE VOLUMES      L**3       RATES FOR THIS TIME STEP      L**3/T
     ------------------                 ------------------------

           IN:                                      IN:
           ---                                      ---
             STORAGE =       6.6658E-05               STORAGE =       1.9020E-05
       CONSTANT HEAD =       6.1178E-03         CONSTANT HEAD =           0.1641
               WELLS =           0.0000                 WELLS =           0.0000
          SWIADDTOCH =           0.0000            SWIADDTOCH =           0.0000

            TOTAL IN =       6.1845E-03              TOTAL IN =           0.1642

          OUT:                                     OUT:
          ----                                     ----
             STORAGE =       1.3537E-10               STORAGE =       3.4366E-09
       CONSTANT HEAD =           0.0000         CONSTANT HEAD =           0.0000
               WELLS =       6.1845E-03                 WELLS =           0.1642
          SWIADDTOCH =       7.1554E-11            SWIADDTOCH =           0.0000

           TOTAL OUT =       6.1845E-03             TOTAL OUT =           0.1642

            IN - OUT =      -7.4506E-09              IN - OUT =      -8.9407E-08

 PERCENT DISCREPANCY =          -0.00     PERCENT DISCREPANCY =          -0.00






         TIME SUMMARY AT END OF TIME STEP   31 IN STRESS PERIOD    1
                    SECONDS     MINUTES      HOURS       DAYS        YEARS
                    -----------------------------------------------------------
   TIME STEP LENGTH  105.00      1.7500     2.91667E-02 1.21528E-03 3.32726E-06
 STRESS PERIOD TIME  3255.0      54.250     0.90417     3.76737E-02 1.03145E-04
         TOTAL TIME  3255.0      54.250     0.90417     3.76737E-02 1.03145E-04
1

 SOLVING FOR HEAD 
     2 EXTERNAL ITERATIONS FOR TIME STEP  32 IN STRESS PERIOD    1

 MAXIMUM HEAD CHANGE FOR EACH ITERATION:

     HEAD CHANGE  LAY,ROW,COL      HEAD CHANGE  LAY,ROW,COL  
 ------------------------------------------------------------
     3.178E-05 (  7,    1, 1000)  -2.244E-07 (  6,    1, 1000)



 OUTPUT CONTROL FOR STRESS PERIOD    1   TIME STEP   32
    PRINT BUDGET
    SAVE HEAD FOR ALL LAYERS
 SOLVING FOR ZETA FOR LAYER     6 ZONE     2

     492 UPPER PART EQS.       493 LOWER PART EQS.    BAND WIDTH + 1 =    3
 STRESS PERIOD=  1 TIMESTEP= 32 LAYER=  6 ZONE=  2 ACTIVE CELLS=  985 NUMBER OF EQUATIONS=     985
 UBUDSV SAVING "      ZETASRF  1" ON UNIT 55 AT TIME STEP 32, STRESS PERIOD    1


                      VOLUMETRIC SWI ZONE BUDGET FOR ENTIRE MODEL
                     AT END OF TIME STEP   32 IN STRESS PERIOD   1
                                      ZONE     1
  -----------------------------------------------------------------------------------

        CUMULATIVE VOLUMES      L**3       RATES FOR THIS TIME STEP      L**3/T
        ------------------                 ------------------------

              IN:                                      IN:
              ---                                      ---
             BOUNDARIES =       6.4483E-09            BOUNDARIES =       1.6854E-07
          CONSTANT HEAD =       5.8542E-03         CONSTANT HEAD =           0.1534
            ZONE CHANGE =       5.2166E-04           ZONE CHANGE =       1.1073E-02
       ZONE CHG TIP/TOE =       1.5692E-05      ZONE CHG TIP/TOE =       3.5854E-05
            ZONE MIXING =           0.0000           ZONE MIXING =           0.0000

               TOTAL IN =       6.3916E-03              TOTAL IN =           0.1645

             OUT:                                     OUT:
             ----                                     ----
             BOUNDARIES =       6.3840E-03            BOUNDARIES =           0.1642
          CONSTANT HEAD =           0.0000         CONSTANT HEAD =           0.0000
            ZONE CHANGE =       7.1832E-06           ZONE CHANGE =       3.0991E-04
       ZONE CHG TIP/TOE =       6.8514E-08      ZONE CHG TIP/TOE =       2.5903E-06
            ZONE MIXING =           0.0000           ZONE MIXING =           0.0000

              TOTAL OUT =       6.3913E-03             TOTAL OUT =           0.1645

               IN - OUT =       3.2177E-07              IN - OUT =      -1.4901E-07

    PERCENT DISCREPANCY =           0.01     PERCENT DISCREPANCY =          -0.00



                      VOLUMETRIC SWI ZONE BUDGET FOR ENTIRE MODEL
                     AT END OF TIME STEP   32 IN STRESS PERIOD   1
                                      ZONE     2
  -----------------------------------------------------------------------------------

        CUMULATIVE VOLUMES      L**3       RATES FOR THIS TIME STEP      L**3/T
        ------------------                 ------------------------

              IN:                                      IN:
              ---                                      ---
             BOUNDARIES =       2.5203E-14            BOUNDARIES =       6.0299E-13
          CONSTANT HEAD =       4.6310E-04         CONSTANT HEAD =       1.0777E-02
            ZONE CHANGE =       6.5281E-06           ZONE CHANGE =       2.9141E-04
       ZONE CHG TIP/TOE =       6.8514E-08      ZONE CHG TIP/TOE =       2.5903E-06
            ZONE MIXING =           0.0000           ZONE MIXING =           0.0000

               TOTAL IN =       4.6970E-04              TOTAL IN =       1.1071E-02

             OUT:                                     OUT:
             ----                                     ----
             BOUNDARIES =       2.5233E-14            BOUNDARIES =       6.4377E-13
          CONSTANT HEAD =           0.0000         CONSTANT HEAD =           0.0000
            ZONE CHANGE =       4.5497E-04           ZONE CHANGE =       1.1054E-02
       ZONE CHG TIP/TOE =       1.5037E-05      ZONE CHG TIP/TOE =       1.7356E-05
            ZONE MIXING =           0.0000           ZONE MIXING =           0.0000

              TOTAL OUT =       4.7001E-04             TOTAL OUT =       1.1071E-02

               IN - OUT =      -3.1205E-07              IN - OUT =       3.7160E-07

    PERCENT DISCREPANCY =          -0.07     PERCENT DISCREPANCY =           0.00


 HEAD WILL BE SAVED ON UNIT   51 AT END OF TIME STEP   32, STRESS PERIOD    1
1
  VOLUMETRIC BUDGET FOR ENTIRE MODEL AT END OF TIME STEP   32, STRESS PERIOD   1
  ------------------------------------------------------------------------------

     CUMULATIVE VOLUMES      L**3       RATES FOR THIS TIME STEP      L**3/T
     ------------------                 ------------------------

           IN:                                      IN:
           ---                                      ---
             STORAGE =       6.6681E-05               STORAGE =       1.9151E-05
       CONSTANT HEAD =       6.3173E-03         CONSTANT HEAD =           0.1641
               WELLS =           0.0000                 WELLS =           0.0000
          SWIADDTOCH =           0.0000            SWIADDTOCH =           0.0000

            TOTAL IN =       6.3840E-03              TOTAL IN =           0.1642

          OUT:                                     OUT:
          ----                                     ----
             STORAGE =       1.3954E-10               STORAGE =       3.4280E-09
       CONSTANT HEAD =           0.0000         CONSTANT HEAD =           0.0000
               WELLS =       6.3840E-03                 WELLS =           0.1642
          SWIADDTOCH =       7.1554E-11            SWIADDTOCH =           0.0000

           TOTAL OUT =       6.3840E-03             TOTAL OUT =           0.1642

            IN - OUT =      -7.4506E-09              IN - OUT =      -8.9407E-08

 PERCENT DISCREPANCY =          -0.00     PERCENT DISCREPANCY =          -0.00






         TIME SUMMARY AT END OF TIME STEP   32 IN STRESS PERIOD    1
                    SECONDS     MINUTES      HOURS       DAYS        YEARS
                    -----------------------------------------------------------
   TIME STEP LENGTH  105.00      1.7500     2.91667E-02 1.21528E-03 3.32726E-06
 STRESS PERIOD TIME  3360.0      56.000     0.93333     3.88889E-02 1.06472E-04
         TOTAL TIME  3360.0      56.000     0.93333     3.88889E-02 1.06472E-04
1

 SOLVING FOR HEAD 
     2 EXTERNAL ITERATIONS FOR TIME STEP  33 IN STRESS PERIOD    1

 MAXIMUM HEAD CHANGE FOR EACH ITERATION:

     HEAD CHANGE  LAY,ROW,COL      HEAD CHANGE  LAY,ROW,COL  
 ------------------------------------------------------------
     3.137E-05 (  7,    1, 1000)  -2.263E-07 (  6,    1,  999)



 OUTPUT CONTROL FOR STRESS PERIOD    1   TIME STEP   33
    PRINT BUDGET
    SAVE HEAD FOR ALL LAYERS
 SOLVING FOR ZETA FOR LAYER     6 ZONE     2

     494 UPPER PART EQS.       493 LOWER PART EQS.    BAND WIDTH + 1 =    4
 STRESS PERIOD=  1 TIMESTEP= 33 LAYER=  6 ZONE=  2 ACTIVE CELLS=  987 NUMBER OF EQUATIONS=     987
 UBUDSV SAVING "      ZETASRF  1" ON UNIT 55 AT TIME STEP 33, STRESS PERIOD    1


                      VOLUMETRIC SWI ZONE BUDGET FOR ENTIRE MODEL
                     AT END OF TIME STEP   33 IN STRESS PERIOD   1
                                      ZONE     1
  -----------------------------------------------------------------------------------

        CUMULATIVE VOLUMES      L**3       RATES FOR THIS TIME STEP      L**3/T
        ------------------                 ------------------------

              IN:                                      IN:
              ---                                      ---
             BOUNDARIES =       6.6491E-09            BOUNDARIES =       1.6526E-07
          CONSTANT HEAD =       6.0407E-03         CONSTANT HEAD =           0.1534
            ZONE CHANGE =       5.3514E-04           ZONE CHANGE =       1.1092E-02
       ZONE CHG TIP/TOE =       1.5739E-05      ZONE CHG TIP/TOE =       3.8653E-05
            ZONE MIXING =           0.0000           ZONE MIXING =           0.0000

               TOTAL IN =       6.5916E-03              TOTAL IN =           0.1646

             OUT:                                     OUT:
             ----                                     ----
             BOUNDARIES =       6.5835E-03            BOUNDARIES =           0.1642
          CONSTANT HEAD =           0.0000         CONSTANT HEAD =           0.0000
            ZONE CHANGE =       7.6627E-06           ZONE CHANGE =       3.9448E-04
       ZONE CHG TIP/TOE =       7.2125E-08      ZONE CHG TIP/TOE =       2.9711E-06
            ZONE MIXING =           0.0000           ZONE MIXING =           0.0000

              TOTAL OUT =       6.5913E-03             TOTAL OUT =           0.1646

               IN - OUT =       3.2876E-07              IN - OUT =       5.6773E-06

    PERCENT DISCREPANCY =           0.00     PERCENT DISCREPANCY =           0.00



                      VOLUMETRIC SWI ZONE BUDGET FOR ENTIRE MODEL
                     AT END OF TIME STEP   33 IN STRESS PERIOD   1
                                      ZONE     2
  -----------------------------------------------------------------------------------

        CUMULATIVE VOLUMES      L**3       RATES FOR THIS TIME STEP      L**3/T
        ------------------                 ------------------------

              IN:                                      IN:
              ---                                      ---
             BOUNDARIES =       2.6004E-14            BOUNDARIES =       6.5894E-13
          CONSTANT HEAD =       4.7611E-04         CONSTANT HEAD =       1.0708E-02
            ZONE CHANGE =       6.9827E-06           ZONE CHANGE =       3.7401E-04
       ZONE CHG TIP/TOE =       7.2125E-08      ZONE CHG TIP/TOE =       2.9711E-06
            ZONE MIXING =           0.0000           ZONE MIXING =           0.0000

               TOTAL IN =       4.8317E-04              TOTAL IN =       1.1085E-02

             OUT:                                     OUT:
             ----                                     ----
             BOUNDARIES =       2.6036E-14            BOUNDARIES =       6.6023E-13
          CONSTANT HEAD =           0.0000         CONSTANT HEAD =           0.0000
            ZONE CHANGE =       4.6843E-04           ZONE CHANGE =       1.1072E-02
       ZONE CHG TIP/TOE =       1.5059E-05      ZONE CHG TIP/TOE =       1.8178E-05
            ZONE MIXING =           0.0000           ZONE MIXING =           0.0000

              TOTAL OUT =       4.8349E-04             TOTAL OUT =       1.1090E-02

               IN - OUT =      -3.1866E-07              IN - OUT =      -5.4333E-06

    PERCENT DISCREPANCY =          -0.07     PERCENT DISCREPANCY =          -0.05


 HEAD WILL BE SAVED ON UNIT   51 AT END OF TIME STEP   33, STRESS PERIOD    1
1
  VOLUMETRIC BUDGET FOR ENTIRE MODEL AT END OF TIME STEP   33, STRESS PERIOD   1
  ------------------------------------------------------------------------------

     CUMULATIVE VOLUMES      L**3       RATES FOR THIS TIME STEP      L**3/T
     ------------------                 ------------------------

           IN:                                      IN:
           ---                                      ---
             STORAGE =       6.6704E-05               STORAGE =       1.9286E-05
       CONSTANT HEAD =       6.5168E-03         CONSTANT HEAD =           0.1641
               WELLS =           0.0000                 WELLS =           0.0000
          SWIADDTOCH =           0.0000            SWIADDTOCH =           0.0000

            TOTAL IN =       6.5835E-03              TOTAL IN =           0.1642

          OUT:                                     OUT:
          ----                                     ----
             STORAGE =       1.4369E-10               STORAGE =       3.4208E-09
       CONSTANT HEAD =           0.0000         CONSTANT HEAD =           0.0000
               WELLS =       6.5835E-03                 WELLS =           0.1642
          SWIADDTOCH =       7.1554E-11            SWIADDTOCH =           0.0000

           TOTAL OUT =       6.5835E-03             TOTAL OUT =           0.1642

            IN - OUT =      -7.9162E-09              IN - OUT =      -7.4506E-08

 PERCENT DISCREPANCY =          -0.00     PERCENT DISCREPANCY =          -0.00






         TIME SUMMARY AT END OF TIME STEP   33 IN STRESS PERIOD    1
                    SECONDS     MINUTES      HOURS       DAYS        YEARS
                    -----------------------------------------------------------
   TIME STEP LENGTH  105.00      1.7500     2.91667E-02 1.21528E-03 3.32726E-06
 STRESS PERIOD TIME  3465.0      57.750     0.96250     4.01042E-02 1.09799E-04
         TOTAL TIME  3465.0      57.750     0.96250     4.01042E-02 1.09799E-04
1

 SOLVING FOR HEAD 
     2 EXTERNAL ITERATIONS FOR TIME STEP  34 IN STRESS PERIOD    1

 MAXIMUM HEAD CHANGE FOR EACH ITERATION:

     HEAD CHANGE  LAY,ROW,COL      HEAD CHANGE  LAY,ROW,COL  
 ------------------------------------------------------------
     3.067E-05 (  7,    1, 1000)  -2.362E-07 (  6,    1,  999)



 OUTPUT CONTROL FOR STRESS PERIOD    1   TIME STEP   34
    PRINT BUDGET
    SAVE HEAD FOR ALL LAYERS
 SOLVING FOR ZETA FOR LAYER     6 ZONE     2

     492 UPPER PART EQS.       493 LOWER PART EQS.    BAND WIDTH + 1 =    3
 STRESS PERIOD=  1 TIMESTEP= 34 LAYER=  6 ZONE=  2 ACTIVE CELLS=  985 NUMBER OF EQUATIONS=     985
 UBUDSV SAVING "      ZETASRF  1" ON UNIT 55 AT TIME STEP 34, STRESS PERIOD    1


                      VOLUMETRIC SWI ZONE BUDGET FOR ENTIRE MODEL
                     AT END OF TIME STEP   34 IN STRESS PERIOD   1
                                      ZONE     1
  -----------------------------------------------------------------------------------

        CUMULATIVE VOLUMES      L**3       RATES FOR THIS TIME STEP      L**3/T
        ------------------                 ------------------------

              IN:                                      IN:
              ---                                      ---
             BOUNDARIES =       6.8628E-09            BOUNDARIES =       1.7584E-07
          CONSTANT HEAD =       6.2272E-03         CONSTANT HEAD =           0.1535
            ZONE CHANGE =       5.4855E-04           ZONE CHANGE =       1.1032E-02
       ZONE CHG TIP/TOE =       1.5779E-05      ZONE CHG TIP/TOE =       3.3068E-05
            ZONE MIXING =           0.0000           ZONE MIXING =           0.0000

               TOTAL IN =       6.7916E-03              TOTAL IN =           0.1646

             OUT:                                     OUT:
             ----                                     ----
             BOUNDARIES =       6.7830E-03            BOUNDARIES =           0.1642
          CONSTANT HEAD =           0.0000         CONSTANT HEAD =           0.0000
            ZONE CHANGE =       8.1475E-06           ZONE CHANGE =       3.9899E-04
       ZONE CHG TIP/TOE =       7.6000E-08      ZONE CHG TIP/TOE =       3.1893E-06
            ZONE MIXING =           0.0000           ZONE MIXING =           0.0000

              TOTAL OUT =       6.7912E-03             TOTAL OUT =           0.1646

               IN - OUT =       3.3155E-07              IN - OUT =       2.5332E-06

    PERCENT DISCREPANCY =           0.00     PERCENT DISCREPANCY =           0.00



                      VOLUMETRIC SWI ZONE BUDGET FOR ENTIRE MODEL
                     AT END OF TIME STEP   34 IN STRESS PERIOD   1
                                      ZONE     2
  -----------------------------------------------------------------------------------

        CUMULATIVE VOLUMES      L**3       RATES FOR THIS TIME STEP      L**3/T
        ------------------                 ------------------------

              IN:                                      IN:
              ---                                      ---
             BOUNDARIES =       2.6811E-14            BOUNDARIES =       6.6397E-13
          CONSTANT HEAD =       4.8904E-04         CONSTANT HEAD =       1.0641E-02
            ZONE CHANGE =       7.4421E-06           ZONE CHANGE =       3.7803E-04
       ZONE CHG TIP/TOE =       7.6000E-08      ZONE CHG TIP/TOE =       3.1893E-06
            ZONE MIXING =           0.0000           ZONE MIXING =           0.0000

               TOTAL IN =       4.9656E-04              TOTAL IN =       1.1022E-02

             OUT:                                     OUT:
             ----                                     ----
             BOUNDARIES =       2.6817E-14            BOUNDARIES =       6.4305E-13
          CONSTANT HEAD =           0.0000         CONSTANT HEAD =           0.0000
            ZONE CHANGE =       4.8181E-04           ZONE CHANGE =       1.1012E-02
       ZONE CHG TIP/TOE =       1.5073E-05      ZONE CHG TIP/TOE =       1.2103E-05
            ZONE MIXING =           0.0000           ZONE MIXING =           0.0000

              TOTAL OUT =       4.9688E-04             TOTAL OUT =       1.1024E-02

               IN - OUT =      -3.2142E-07              IN - OUT =      -2.3060E-06

    PERCENT DISCREPANCY =          -0.06     PERCENT DISCREPANCY =          -0.02


 HEAD WILL BE SAVED ON UNIT   51 AT END OF TIME STEP   34, STRESS PERIOD    1
1
  VOLUMETRIC BUDGET FOR ENTIRE MODEL AT END OF TIME STEP   34, STRESS PERIOD   1
  ------------------------------------------------------------------------------

     CUMULATIVE VOLUMES      L**3       RATES FOR THIS TIME STEP      L**3/T
     ------------------                 ------------------------

           IN:                                      IN:
           ---                                      ---
             STORAGE =       6.6728E-05               STORAGE =       1.9810E-05
       CONSTANT HEAD =       6.7163E-03         CONSTANT HEAD =           0.1641
               WELLS =           0.0000                 WELLS =           0.0000
          SWIADDTOCH =           0.0000            SWIADDTOCH =           0.0000

            TOTAL IN =       6.7830E-03              TOTAL IN =           0.1642

          OUT:                                     OUT:
          ----                                     ----
             STORAGE =       1.5010E-10               STORAGE =       5.2682E-09
       CONSTANT HEAD =           0.0000         CONSTANT HEAD =           0.0000
               WELLS =       6.7830E-03                 WELLS =           0.1642
          SWIADDTOCH =       7.1554E-11            SWIADDTOCH =           0.0000

           TOTAL OUT =       6.7830E-03             TOTAL OUT =           0.1642

            IN - OUT =      -7.9162E-09              IN - OUT =      -8.9407E-08

 PERCENT DISCREPANCY =          -0.00     PERCENT DISCREPANCY =          -0.00






         TIME SUMMARY AT END OF TIME STEP   34 IN STRESS PERIOD    1
                    SECONDS     MINUTES      HOURS       DAYS        YEARS
                    -----------------------------------------------------------
   TIME STEP LENGTH  105.00      1.7500     2.91667E-02 1.21528E-03 3.32726E-06
 STRESS PERIOD TIME  3570.0      59.500     0.99167     4.13195E-02 1.13127E-04
         TOTAL TIME  3570.0      59.500     0.99167     4.13195E-02 1.13127E-04
1

 SOLVING FOR HEAD 
     2 EXTERNAL ITERATIONS FOR TIME STEP  35 IN STRESS PERIOD    1

 MAXIMUM HEAD CHANGE FOR EACH ITERATION:

     HEAD CHANGE  LAY,ROW,COL      HEAD CHANGE  LAY,ROW,COL  
 ------------------------------------------------------------
     3.091E-05 (  7,    1, 1000)  -2.209E-07 (  6,    1, 1000)



 OUTPUT CONTROL FOR STRESS PERIOD    1   TIME STEP   35
    PRINT BUDGET
    SAVE HEAD FOR ALL LAYERS
 SOLVING FOR ZETA FOR LAYER     6 ZONE     2

     494 UPPER PART EQS.       493 LOWER PART EQS.    BAND WIDTH + 1 =    5
 STRESS PERIOD=  1 TIMESTEP= 35 LAYER=  6 ZONE=  2 ACTIVE CELLS=  987 NUMBER OF EQUATIONS=     987
 UBUDSV SAVING "      ZETASRF  1" ON UNIT 55 AT TIME STEP 35, STRESS PERIOD    1


                      VOLUMETRIC SWI ZONE BUDGET FOR ENTIRE MODEL
                     AT END OF TIME STEP   35 IN STRESS PERIOD   1
                                      ZONE     1
  -----------------------------------------------------------------------------------

        CUMULATIVE VOLUMES      L**3       RATES FOR THIS TIME STEP      L**3/T
        ------------------                 ------------------------

              IN:                                      IN:
              ---                                      ---
             BOUNDARIES =       7.0733E-09            BOUNDARIES =       1.7321E-07
          CONSTANT HEAD =       6.4139E-03         CONSTANT HEAD =           0.1536
            ZONE CHANGE =       5.6172E-04           ZONE CHANGE =       1.0839E-02
       ZONE CHG TIP/TOE =       1.5828E-05      ZONE CHG TIP/TOE =       4.0156E-05
            ZONE MIXING =           0.0000           ZONE MIXING =           0.0000

               TOTAL IN =       6.9914E-03              TOTAL IN =           0.1644

             OUT:                                     OUT:
             ----                                     ----
             BOUNDARIES =       6.9825E-03            BOUNDARIES =           0.1642
          CONSTANT HEAD =           0.0000         CONSTANT HEAD =           0.0000
            ZONE CHANGE =       8.4945E-06           ZONE CHANGE =       2.8546E-04
       ZONE CHG TIP/TOE =       7.8365E-08      ZONE CHG TIP/TOE =       1.9457E-06
            ZONE MIXING =           0.0000           ZONE MIXING =           0.0000

              TOTAL OUT =       6.9911E-03             TOTAL OUT =           0.1644

               IN - OUT =       3.3434E-07              IN - OUT =       2.1756E-06

    PERCENT DISCREPANCY =           0.00     PERCENT DISCREPANCY =           0.00



                      VOLUMETRIC SWI ZONE BUDGET FOR ENTIRE MODEL
                     AT END OF TIME STEP   35 IN STRESS PERIOD   1
                                      ZONE     2
  -----------------------------------------------------------------------------------

        CUMULATIVE VOLUMES      L**3       RATES FOR THIS TIME STEP      L**3/T
        ------------------                 ------------------------

              IN:                                      IN:
              ---                                      ---
             BOUNDARIES =       2.7591E-14            BOUNDARIES =       6.4162E-13
          CONSTANT HEAD =       5.0189E-04         CONSTANT HEAD =       1.0570E-02
            ZONE CHANGE =       7.7644E-06           ZONE CHANGE =       2.6527E-04
       ZONE CHG TIP/TOE =       7.8365E-08      ZONE CHG TIP/TOE =       1.9457E-06
            ZONE MIXING =           0.0000           ZONE MIXING =           0.0000

               TOTAL IN =       5.0973E-04              TOTAL IN =       1.0837E-02

             OUT:                                     OUT:
             ----                                     ----
             BOUNDARIES =       2.7604E-14            BOUNDARIES =       6.4757E-13
          CONSTANT HEAD =           0.0000         CONSTANT HEAD =           0.0000
            ZONE CHANGE =       4.9496E-04           ZONE CHANGE =       1.0819E-02
       ZONE CHG TIP/TOE =       1.5098E-05      ZONE CHG TIP/TOE =       1.9966E-05
            ZONE MIXING =           0.0000           ZONE MIXING =           0.0000

              TOTAL OUT =       5.1006E-04             TOTAL OUT =       1.0839E-02

               IN - OUT =      -3.2381E-07              IN - OUT =      -1.9325E-06

    PERCENT DISCREPANCY =          -0.06     PERCENT DISCREPANCY =          -0.02


 HEAD WILL BE SAVED ON UNIT   51 AT END OF TIME STEP   35, STRESS PERIOD    1
1
  VOLUMETRIC BUDGET FOR ENTIRE MODEL AT END OF TIME STEP   35, STRESS PERIOD   1
  ------------------------------------------------------------------------------

     CUMULATIVE VOLUMES      L**3       RATES FOR THIS TIME STEP      L**3/T
     ------------------                 ------------------------

           IN:                                      IN:
           ---                                      ---
             STORAGE =       6.6752E-05               STORAGE =       1.9181E-05
       CONSTANT HEAD =       6.9158E-03         CONSTANT HEAD =           0.1641
               WELLS =           0.0000                 WELLS =           0.0000
          SWIADDTOCH =           0.0000            SWIADDTOCH =           0.0000

            TOTAL IN =       6.9825E-03              TOTAL IN =           0.1642

          OUT:                                     OUT:
          ----                                     ----
             STORAGE =       1.5425E-10               STORAGE =       3.4191E-09
       CONSTANT HEAD =           0.0000         CONSTANT HEAD =           0.0000
               WELLS =       6.9825E-03                 WELLS =           0.1642
          SWIADDTOCH =       9.3655E-11            SWIADDTOCH =       1.8186E-08

           TOTAL OUT =       6.9825E-03             TOTAL OUT =           0.1642

            IN - OUT =      -7.9162E-09              IN - OUT =      -7.4506E-08

 PERCENT DISCREPANCY =          -0.00     PERCENT DISCREPANCY =          -0.00






         TIME SUMMARY AT END OF TIME STEP   35 IN STRESS PERIOD    1
                    SECONDS     MINUTES      HOURS       DAYS        YEARS
                    -----------------------------------------------------------
   TIME STEP LENGTH  105.00      1.7500     2.91667E-02 1.21528E-03 3.32726E-06
 STRESS PERIOD TIME  3675.0      61.250      1.0208     4.25348E-02 1.16454E-04
         TOTAL TIME  3675.0      61.250      1.0208     4.25348E-02 1.16454E-04
1

 SOLVING FOR HEAD 
     2 EXTERNAL ITERATIONS FOR TIME STEP  36 IN STRESS PERIOD    1

 MAXIMUM HEAD CHANGE FOR EACH ITERATION:

     HEAD CHANGE  LAY,ROW,COL      HEAD CHANGE  LAY,ROW,COL  
 ------------------------------------------------------------
     3.020E-05 (  7,    1, 1000)  -2.301E-07 (  6,    1,  999)



 OUTPUT CONTROL FOR STRESS PERIOD    1   TIME STEP   36
    PRINT BUDGET
    SAVE HEAD FOR ALL LAYERS
 SOLVING FOR ZETA FOR LAYER     6 ZONE     2

     492 UPPER PART EQS.       495 LOWER PART EQS.    BAND WIDTH + 1 =    5
 STRESS PERIOD=  1 TIMESTEP= 36 LAYER=  6 ZONE=  2 ACTIVE CELLS=  987 NUMBER OF EQUATIONS=     987
 UBUDSV SAVING "      ZETASRF  1" ON UNIT 55 AT TIME STEP 36, STRESS PERIOD    1


                      VOLUMETRIC SWI ZONE BUDGET FOR ENTIRE MODEL
                     AT END OF TIME STEP   36 IN STRESS PERIOD   1
                                      ZONE     1
  -----------------------------------------------------------------------------------

        CUMULATIVE VOLUMES      L**3       RATES FOR THIS TIME STEP      L**3/T
        ------------------                 ------------------------

              IN:                                      IN:
              ---                                      ---
             BOUNDARIES =       7.2664E-09            BOUNDARIES =       1.5893E-07
          CONSTANT HEAD =       6.6006E-03         CONSTANT HEAD =           0.1536
            ZONE CHANGE =       5.7490E-04           ZONE CHANGE =       1.0844E-02
       ZONE CHG TIP/TOE =       1.5859E-05      ZONE CHG TIP/TOE =       2.5803E-05
            ZONE MIXING =           0.0000           ZONE MIXING =           0.0000

               TOTAL IN =       7.1913E-03              TOTAL IN =           0.1645

             OUT:                                     OUT:
             ----                                     ----
             BOUNDARIES =       7.1820E-03            BOUNDARIES =           0.1642
          CONSTANT HEAD =           0.0000         CONSTANT HEAD =           0.0000
            ZONE CHANGE =       8.9209E-06           ZONE CHANGE =       3.5088E-04
       ZONE CHG TIP/TOE =       8.2035E-08      ZONE CHG TIP/TOE =       3.0194E-06
            ZONE MIXING =           0.0000           ZONE MIXING =           0.0000

              TOTAL OUT =       7.1910E-03             TOTAL OUT =           0.1645

               IN - OUT =       3.2876E-07              IN - OUT =      -4.8876E-06

    PERCENT DISCREPANCY =           0.00     PERCENT DISCREPANCY =          -0.00



                      VOLUMETRIC SWI ZONE BUDGET FOR ENTIRE MODEL
                     AT END OF TIME STEP   36 IN STRESS PERIOD   1
                                      ZONE     2
  -----------------------------------------------------------------------------------

        CUMULATIVE VOLUMES      L**3       RATES FOR THIS TIME STEP      L**3/T
        ------------------                 ------------------------

              IN:                                      IN:
              ---                                      ---
             BOUNDARIES =       2.8374E-14            BOUNDARIES =       6.4417E-13
          CONSTANT HEAD =       5.1465E-04         CONSTANT HEAD =       1.0501E-02
            ZONE CHANGE =       8.1725E-06           ZONE CHANGE =       3.3581E-04
       ZONE CHG TIP/TOE =       8.2035E-08      ZONE CHG TIP/TOE =       3.0194E-06
            ZONE MIXING =           0.0000           ZONE MIXING =           0.0000

               TOTAL IN =       5.2291E-04              TOTAL IN =       1.0840E-02

             OUT:                                     OUT:
             ----                                     ----
             BOUNDARIES =       2.8352E-14            BOUNDARIES =       6.1534E-13
          CONSTANT HEAD =           0.0000         CONSTANT HEAD =           0.0000
            ZONE CHANGE =       5.0811E-04           ZONE CHANGE =       1.0824E-02
       ZONE CHG TIP/TOE =       1.5111E-05      ZONE CHG TIP/TOE =       1.0734E-05
            ZONE MIXING =           0.0000           ZONE MIXING =           0.0000

              TOTAL OUT =       5.2322E-04             TOTAL OUT =       1.0835E-02

               IN - OUT =      -3.1758E-07              IN - OUT =       5.1502E-06

    PERCENT DISCREPANCY =          -0.06     PERCENT DISCREPANCY =           0.05


 HEAD WILL BE SAVED ON UNIT   51 AT END OF TIME STEP   36, STRESS PERIOD    1
1
  VOLUMETRIC BUDGET FOR ENTIRE MODEL AT END OF TIME STEP   36, STRESS PERIOD   1
  ------------------------------------------------------------------------------

     CUMULATIVE VOLUMES      L**3       RATES FOR THIS TIME STEP      L**3/T
     ------------------                 ------------------------

           IN:                                      IN:
           ---                                      ---
             STORAGE =       6.6775E-05               STORAGE =       1.9389E-05
       CONSTANT HEAD =       7.1152E-03         CONSTANT HEAD =           0.1641
               WELLS =           0.0000                 WELLS =           0.0000
          SWIADDTOCH =           0.0000            SWIADDTOCH =           0.0000

            TOTAL IN =       7.1820E-03              TOTAL IN =           0.1642

          OUT:                                     OUT:
          ----                                     ----
             STORAGE =       1.5952E-10               STORAGE =       4.3322E-09
       CONSTANT HEAD =           0.0000         CONSTANT HEAD =           0.0000
               WELLS =       7.1820E-03                 WELLS =           0.1642
          SWIADDTOCH =       9.3655E-11            SWIADDTOCH =           0.0000

           TOTAL OUT =       7.1820E-03             TOTAL OUT =           0.1642

            IN - OUT =      -7.9162E-09              IN - OUT =      -5.9605E-08

 PERCENT DISCREPANCY =          -0.00     PERCENT DISCREPANCY =          -0.00






         TIME SUMMARY AT END OF TIME STEP   36 IN STRESS PERIOD    1
                    SECONDS     MINUTES      HOURS       DAYS        YEARS
                    -----------------------------------------------------------
   TIME STEP LENGTH  105.00      1.7500     2.91667E-02 1.21528E-03 3.32726E-06
 STRESS PERIOD TIME  3780.0      63.000      1.0500     4.37501E-02 1.19781E-04
         TOTAL TIME  3780.0      63.000      1.0500     4.37501E-02 1.19781E-04
1

 SOLVING FOR HEAD 
     2 EXTERNAL ITERATIONS FOR TIME STEP  37 IN STRESS PERIOD    1

 MAXIMUM HEAD CHANGE FOR EACH ITERATION:

     HEAD CHANGE  LAY,ROW,COL      HEAD CHANGE  LAY,ROW,COL  
 ------------------------------------------------------------
     2.981E-05 (  7,    1, 1000)  -2.313E-07 (  6,    1,  999)



 OUTPUT CONTROL FOR STRESS PERIOD    1   TIME STEP   37
    PRINT BUDGET
    SAVE HEAD FOR ALL LAYERS
 SOLVING FOR ZETA FOR LAYER     6 ZONE     2

     494 UPPER PART EQS.       494 LOWER PART EQS.    BAND WIDTH + 1 =    4
 STRESS PERIOD=  1 TIMESTEP= 37 LAYER=  6 ZONE=  2 ACTIVE CELLS=  988 NUMBER OF EQUATIONS=     988
 UBUDSV SAVING "      ZETASRF  1" ON UNIT 55 AT TIME STEP 37, STRESS PERIOD    1


                      VOLUMETRIC SWI ZONE BUDGET FOR ENTIRE MODEL
                     AT END OF TIME STEP   37 IN STRESS PERIOD   1
                                      ZONE     1
  -----------------------------------------------------------------------------------

        CUMULATIVE VOLUMES      L**3       RATES FOR THIS TIME STEP      L**3/T
        ------------------                 ------------------------

              IN:                                      IN:
              ---                                      ---
             BOUNDARIES =       7.4581E-09            BOUNDARIES =       1.5769E-07
          CONSTANT HEAD =       6.7874E-03         CONSTANT HEAD =           0.1537
            ZONE CHANGE =       5.8789E-04           ZONE CHANGE =       1.0689E-02
       ZONE CHG TIP/TOE =       1.5887E-05      ZONE CHG TIP/TOE =       2.3187E-05
            ZONE MIXING =           0.0000           ZONE MIXING =           0.0000

               TOTAL IN =       7.3912E-03              TOTAL IN =           0.1644

             OUT:                                     OUT:
             ----                                     ----
             BOUNDARIES =       7.3815E-03            BOUNDARIES =           0.1642
          CONSTANT HEAD =           0.0000         CONSTANT HEAD =           0.0000
            ZONE CHANGE =       9.2371E-06           ZONE CHANGE =       2.6018E-04
       ZONE CHG TIP/TOE =       8.6952E-08      ZONE CHG TIP/TOE =       4.0467E-06
            ZONE MIXING =           0.0000           ZONE MIXING =           0.0000

              TOTAL OUT =       7.3908E-03             TOTAL OUT =           0.1644

               IN - OUT =       3.2270E-07              IN - OUT =      -5.3495E-06

    PERCENT DISCREPANCY =           0.00     PERCENT DISCREPANCY =          -0.00



                      VOLUMETRIC SWI ZONE BUDGET FOR ENTIRE MODEL
                     AT END OF TIME STEP   37 IN STRESS PERIOD   1
                                      ZONE     2
  -----------------------------------------------------------------------------------

        CUMULATIVE VOLUMES      L**3       RATES FOR THIS TIME STEP      L**3/T
        ------------------                 ------------------------

              IN:                                      IN:
              ---                                      ---
             BOUNDARIES =       2.9180E-14            BOUNDARIES =       6.6330E-13
          CONSTANT HEAD =       5.2733E-04         CONSTANT HEAD =       1.0433E-02
            ZONE CHANGE =       8.4719E-06           ZONE CHANGE =       2.4634E-04
       ZONE CHG TIP/TOE =       8.6952E-08      ZONE CHG TIP/TOE =       4.0467E-06
            ZONE MIXING =           0.0000           ZONE MIXING =           0.0000

               TOTAL IN =       5.3589E-04              TOTAL IN =       1.0684E-02

             OUT:                                     OUT:
             ----                                     ----
             BOUNDARIES =       2.9075E-14            BOUNDARIES =       5.9477E-13
          CONSTANT HEAD =           0.0000         CONSTANT HEAD =           0.0000
            ZONE CHANGE =       5.2108E-04           ZONE CHANGE =       1.0669E-02
       ZONE CHG TIP/TOE =       1.5122E-05      ZONE CHG TIP/TOE =       9.3567E-06
            ZONE MIXING =           0.0000           ZONE MIXING =           0.0000

              TOTAL OUT =       5.3620E-04             TOTAL OUT =       1.0678E-02

               IN - OUT =      -3.1077E-07              IN - OUT =       5.5870E-06

    PERCENT DISCREPANCY =          -0.06     PERCENT DISCREPANCY =           0.05


 HEAD WILL BE SAVED ON UNIT   51 AT END OF TIME STEP   37, STRESS PERIOD    1
1
  VOLUMETRIC BUDGET FOR ENTIRE MODEL AT END OF TIME STEP   37, STRESS PERIOD   1
  ------------------------------------------------------------------------------

     CUMULATIVE VOLUMES      L**3       RATES FOR THIS TIME STEP      L**3/T
     ------------------                 ------------------------

           IN:                                      IN:
           ---                                      ---
             STORAGE =       6.6799E-05               STORAGE =       1.9544E-05
       CONSTANT HEAD =       7.3147E-03         CONSTANT HEAD =           0.1641
               WELLS =           0.0000                 WELLS =           0.0000
          SWIADDTOCH =           0.0000            SWIADDTOCH =           0.0000

            TOTAL IN =       7.3815E-03              TOTAL IN =           0.1642

          OUT:                                     OUT:
          ----                                     ----
             STORAGE =       1.6477E-10               STORAGE =       4.3256E-09
       CONSTANT HEAD =           0.0000         CONSTANT HEAD =           0.0000
               WELLS =       7.3815E-03                 WELLS =           0.1642
          SWIADDTOCH =       9.3655E-11            SWIADDTOCH =           0.0000

           TOTAL OUT =       7.3815E-03             TOTAL OUT =           0.1642

            IN - OUT =      -7.9162E-09              IN - OUT =      -1.4901E-08

 PERCENT DISCREPANCY =          -0.00     PERCENT DISCREPANCY =          -0.00






         TIME SUMMARY AT END OF TIME STEP   37 IN STRESS PERIOD    1
                    SECONDS     MINUTES      HOURS       DAYS        YEARS
                    -----------------------------------------------------------
   TIME STEP LENGTH  105.00      1.7500     2.91667E-02 1.21528E-03 3.32726E-06
 STRESS PERIOD TIME  3885.0      64.750      1.0792     4.49653E-02 1.23108E-04
         TOTAL TIME  3885.0      64.750      1.0792     4.49653E-02 1.23108E-04
1

 SOLVING FOR HEAD 
     2 EXTERNAL ITERATIONS FOR TIME STEP  38 IN STRESS PERIOD    1

 MAXIMUM HEAD CHANGE FOR EACH ITERATION:

     HEAD CHANGE  LAY,ROW,COL      HEAD CHANGE  LAY,ROW,COL  
 ------------------------------------------------------------
     2.943E-05 (  7,    1, 1000)  -2.322E-07 (  6,    1,  999)



 OUTPUT CONTROL FOR STRESS PERIOD    1   TIME STEP   38
    PRINT BUDGET
    SAVE HEAD FOR ALL LAYERS
 SOLVING FOR ZETA FOR LAYER     6 ZONE     2

     493 UPPER PART EQS.       494 LOWER PART EQS.    BAND WIDTH + 1 =    3
 STRESS PERIOD=  1 TIMESTEP= 38 LAYER=  6 ZONE=  2 ACTIVE CELLS=  987 NUMBER OF EQUATIONS=     987
 UBUDSV SAVING "      ZETASRF  1" ON UNIT 55 AT TIME STEP 38, STRESS PERIOD    1


                      VOLUMETRIC SWI ZONE BUDGET FOR ENTIRE MODEL
                     AT END OF TIME STEP   38 IN STRESS PERIOD   1
                                      ZONE     1
  -----------------------------------------------------------------------------------

        CUMULATIVE VOLUMES      L**3       RATES FOR THIS TIME STEP      L**3/T
        ------------------                 ------------------------

              IN:                                      IN:
              ---                                      ---
             BOUNDARIES =       7.6740E-09            BOUNDARIES =       1.7773E-07
          CONSTANT HEAD =       6.9743E-03         CONSTANT HEAD =           0.1538
            ZONE CHANGE =       6.0098E-04           ZONE CHANGE =       1.0767E-02
       ZONE CHG TIP/TOE =       1.5915E-05      ZONE CHG TIP/TOE =       2.3078E-05
            ZONE MIXING =           0.0000           ZONE MIXING =           0.0000

               TOTAL IN =       7.5912E-03              TOTAL IN =           0.1646

             OUT:                                     OUT:
             ----                                     ----
             BOUNDARIES =       7.5810E-03            BOUNDARIES =           0.1642
          CONSTANT HEAD =           0.0000         CONSTANT HEAD =           0.0000
            ZONE CHANGE =       9.7335E-06           ZONE CHANGE =       4.0854E-04
       ZONE CHG TIP/TOE =       9.0886E-08      ZONE CHG TIP/TOE =       3.2366E-06
            ZONE MIXING =           0.0000           ZONE MIXING =           0.0000

              TOTAL OUT =       7.5908E-03             TOTAL OUT =           0.1646

               IN - OUT =       3.1386E-07              IN - OUT =      -6.6012E-06

    PERCENT DISCREPANCY =           0.00     PERCENT DISCREPANCY =          -0.00



                      VOLUMETRIC SWI ZONE BUDGET FOR ENTIRE MODEL
                     AT END OF TIME STEP   38 IN STRESS PERIOD   1
                                      ZONE     2
  -----------------------------------------------------------------------------------

        CUMULATIVE VOLUMES      L**3       RATES FOR THIS TIME STEP      L**3/T
        ------------------                 ------------------------

              IN:                                      IN:
              ---                                      ---
             BOUNDARIES =       2.9980E-14            BOUNDARIES =       6.5880E-13
          CONSTANT HEAD =       5.3993E-04         CONSTANT HEAD =       1.0366E-02
            ZONE CHANGE =       8.9533E-06           ZONE CHANGE =       3.9612E-04
       ZONE CHG TIP/TOE =       9.0886E-08      ZONE CHG TIP/TOE =       3.2366E-06
            ZONE MIXING =           0.0000           ZONE MIXING =           0.0000

               TOTAL IN =       5.4897E-04              TOTAL IN =       1.0765E-02

             OUT:                                     OUT:
             ----                                     ----
             BOUNDARIES =       2.9839E-14            BOUNDARIES =       6.2856E-13
          CONSTANT HEAD =           0.0000         CONSTANT HEAD =           0.0000
            ZONE CHANGE =       5.3414E-04           ZONE CHANGE =       1.0748E-02
       ZONE CHG TIP/TOE =       1.5135E-05      ZONE CHG TIP/TOE =       1.0665E-05
            ZONE MIXING =           0.0000           ZONE MIXING =           0.0000

              TOTAL OUT =       5.4928E-04             TOTAL OUT =       1.0758E-02

               IN - OUT =      -3.0239E-07              IN - OUT =       6.8992E-06

    PERCENT DISCREPANCY =          -0.06     PERCENT DISCREPANCY =           0.06


 HEAD WILL BE SAVED ON UNIT   51 AT END OF TIME STEP   38, STRESS PERIOD    1
1
  VOLUMETRIC BUDGET FOR ENTIRE MODEL AT END OF TIME STEP   38, STRESS PERIOD   1
  ------------------------------------------------------------------------------

     CUMULATIVE VOLUMES      L**3       RATES FOR THIS TIME STEP      L**3/T
     ------------------                 ------------------------

           IN:                                      IN:
           ---                                      ---
             STORAGE =       6.6823E-05               STORAGE =       1.9575E-05
       CONSTANT HEAD =       7.5142E-03         CONSTANT HEAD =           0.1641
               WELLS =           0.0000                 WELLS =           0.0000
          SWIADDTOCH =           0.0000            SWIADDTOCH =           0.0000

            TOTAL IN =       7.5810E-03              TOTAL IN =           0.1642

          OUT:                                     OUT:
          ----                                     ----
             STORAGE =       1.7115E-10               STORAGE =       5.2504E-09
       CONSTANT HEAD =           0.0000         CONSTANT HEAD =           0.0000
               WELLS =       7.5810E-03                 WELLS =           0.1642
          SWIADDTOCH =       9.3655E-11            SWIADDTOCH =           0.0000

           TOTAL OUT =       7.5810E-03             TOTAL OUT =           0.1642

            IN - OUT =      -7.9162E-09              IN - OUT =      -4.4703E-08

 PERCENT DISCREPANCY =          -0.00     PERCENT DISCREPANCY =          -0.00






         TIME SUMMARY AT END OF TIME STEP   38 IN STRESS PERIOD    1
                    SECONDS     MINUTES      HOURS       DAYS        YEARS
                    -----------------------------------------------------------
   TIME STEP LENGTH  105.00      1.7500     2.91667E-02 1.21528E-03 3.32726E-06
 STRESS PERIOD TIME  3990.0      66.500      1.1083     4.61806E-02 1.26436E-04
         TOTAL TIME  3990.0      66.500      1.1083     4.61806E-02 1.26436E-04
1

 SOLVING FOR HEAD 
     2 EXTERNAL ITERATIONS FOR TIME STEP  39 IN STRESS PERIOD    1

 MAXIMUM HEAD CHANGE FOR EACH ITERATION:

     HEAD CHANGE  LAY,ROW,COL      HEAD CHANGE  LAY,ROW,COL  
 ------------------------------------------------------------
     2.904E-05 (  7,    1, 1000)  -2.337E-07 (  6,    1, 1000)



 OUTPUT CONTROL FOR STRESS PERIOD    1   TIME STEP   39
    PRINT BUDGET
    SAVE HEAD FOR ALL LAYERS
 SOLVING FOR ZETA FOR LAYER     6 ZONE     2

     494 UPPER PART EQS.       495 LOWER PART EQS.    BAND WIDTH + 1 =    3
 STRESS PERIOD=  1 TIMESTEP= 39 LAYER=  6 ZONE=  2 ACTIVE CELLS=  989 NUMBER OF EQUATIONS=     989
 UBUDSV SAVING "      ZETASRF  1" ON UNIT 55 AT TIME STEP 39, STRESS PERIOD    1


                      VOLUMETRIC SWI ZONE BUDGET FOR ENTIRE MODEL
                     AT END OF TIME STEP   39 IN STRESS PERIOD   1
                                      ZONE     1
  -----------------------------------------------------------------------------------

        CUMULATIVE VOLUMES      L**3       RATES FOR THIS TIME STEP      L**3/T
        ------------------                 ------------------------

              IN:                                      IN:
              ---                                      ---
             BOUNDARIES =       7.8793E-09            BOUNDARIES =       1.6887E-07
          CONSTANT HEAD =       7.1612E-03         CONSTANT HEAD =           0.1538
            ZONE CHANGE =       6.1401E-04           ZONE CHANGE =       1.0722E-02
       ZONE CHG TIP/TOE =       1.5956E-05      ZONE CHG TIP/TOE =       3.3753E-05
            ZONE MIXING =           0.0000           ZONE MIXING =           0.0000

               TOTAL IN =       7.7912E-03              TOTAL IN =           0.1646

             OUT:                                     OUT:
             ----                                     ----
             BOUNDARIES =       7.7805E-03            BOUNDARIES =           0.1642
          CONSTANT HEAD =           0.0000         CONSTANT HEAD =           0.0000
            ZONE CHANGE =       1.0256E-05           ZONE CHANGE =       4.2979E-04
       ZONE CHG TIP/TOE =       9.3073E-08      ZONE CHG TIP/TOE =       1.8001E-06
            ZONE MIXING =           0.0000           ZONE MIXING =           0.0000

              TOTAL OUT =       7.7909E-03             TOTAL OUT =           0.1646

               IN - OUT =       3.2131E-07              IN - OUT =       5.7667E-06

    PERCENT DISCREPANCY =           0.00     PERCENT DISCREPANCY =           0.00



                      VOLUMETRIC SWI ZONE BUDGET FOR ENTIRE MODEL
                     AT END OF TIME STEP   39 IN STRESS PERIOD   1
                                      ZONE     2
  -----------------------------------------------------------------------------------

        CUMULATIVE VOLUMES      L**3       RATES FOR THIS TIME STEP      L**3/T
        ------------------                 ------------------------

              IN:                                      IN:
              ---                                      ---
             BOUNDARIES =       3.0778E-14            BOUNDARIES =       6.5628E-13
          CONSTANT HEAD =       5.5244E-04         CONSTANT HEAD =       1.0299E-02
            ZONE CHANGE =       9.4468E-06           ZONE CHANGE =       4.0610E-04
       ZONE CHG TIP/TOE =       9.3073E-08      ZONE CHG TIP/TOE =       1.8001E-06
            ZONE MIXING =           0.0000           ZONE MIXING =           0.0000

               TOTAL IN =       5.6198E-04              TOTAL IN =       1.0707E-02

             OUT:                                     OUT:
             ----                                     ----
             BOUNDARIES =       3.0571E-14            BOUNDARIES =       6.0284E-13
          CONSTANT HEAD =           0.0000         CONSTANT HEAD =           0.0000
            ZONE CHANGE =       5.4715E-04           ZONE CHANGE =       1.0702E-02
       ZONE CHG TIP/TOE =       1.5147E-05      ZONE CHG TIP/TOE =       1.0066E-05
            ZONE MIXING =           0.0000           ZONE MIXING =           0.0000

              TOTAL OUT =       5.6229E-04             TOTAL OUT =       1.0712E-02

               IN - OUT =      -3.0902E-07              IN - OUT =      -5.4622E-06

    PERCENT DISCREPANCY =          -0.05     PERCENT DISCREPANCY =          -0.05


 HEAD WILL BE SAVED ON UNIT   51 AT END OF TIME STEP   39, STRESS PERIOD    1
1
  VOLUMETRIC BUDGET FOR ENTIRE MODEL AT END OF TIME STEP   39, STRESS PERIOD   1
  ------------------------------------------------------------------------------

     CUMULATIVE VOLUMES      L**3       RATES FOR THIS TIME STEP      L**3/T
     ------------------                 ------------------------

           IN:                                      IN:
           ---                                      ---
             STORAGE =       6.6847E-05               STORAGE =       1.9666E-05
       CONSTANT HEAD =       7.7137E-03         CONSTANT HEAD =           0.1641
               WELLS =           0.0000                 WELLS =           0.0000
          SWIADDTOCH =           0.0000            SWIADDTOCH =           0.0000

            TOTAL IN =       7.7805E-03              TOTAL IN =           0.1642

          OUT:                                     OUT:
          ----                                     ----
             STORAGE =       1.7753E-10               STORAGE =       5.2445E-09
       CONSTANT HEAD =           0.0000         CONSTANT HEAD =           0.0000
               WELLS =       7.7805E-03                 WELLS =           0.1642
          SWIADDTOCH =       9.3655E-11            SWIADDTOCH =           0.0000

           TOTAL OUT =       7.7805E-03             TOTAL OUT =           0.1642

            IN - OUT =      -8.3819E-09              IN - OUT =      -1.4901E-08

 PERCENT DISCREPANCY =          -0.00     PERCENT DISCREPANCY =          -0.00






         TIME SUMMARY AT END OF TIME STEP   39 IN STRESS PERIOD    1
                    SECONDS     MINUTES      HOURS       DAYS        YEARS
                    -----------------------------------------------------------
   TIME STEP LENGTH  105.00      1.7500     2.91667E-02 1.21528E-03 3.32726E-06
 STRESS PERIOD TIME  4095.0      68.250      1.1375     4.73959E-02 1.29763E-04
         TOTAL TIME  4095.0      68.250      1.1375     4.73959E-02 1.29763E-04
1

 SOLVING FOR HEAD 
     2 EXTERNAL ITERATIONS FOR TIME STEP  40 IN STRESS PERIOD    1

 MAXIMUM HEAD CHANGE FOR EACH ITERATION:

     HEAD CHANGE  LAY,ROW,COL      HEAD CHANGE  LAY,ROW,COL  
 ------------------------------------------------------------
     2.868E-05 (  7,    1, 1000)  -2.342E-07 (  6,    1,  999)



 OUTPUT CONTROL FOR STRESS PERIOD    1   TIME STEP   40
    PRINT BUDGET
    SAVE HEAD FOR ALL LAYERS
 SOLVING FOR ZETA FOR LAYER     6 ZONE     2

     492 UPPER PART EQS.       493 LOWER PART EQS.    BAND WIDTH + 1 =    2
 STRESS PERIOD=  1 TIMESTEP= 40 LAYER=  6 ZONE=  2 ACTIVE CELLS=  985 NUMBER OF EQUATIONS=     985
 UBUDSV SAVING "      ZETASRF  1" ON UNIT 55 AT TIME STEP 40, STRESS PERIOD    1


                      VOLUMETRIC SWI ZONE BUDGET FOR ENTIRE MODEL
                     AT END OF TIME STEP   40 IN STRESS PERIOD   1
                                      ZONE     1
  -----------------------------------------------------------------------------------

        CUMULATIVE VOLUMES      L**3       RATES FOR THIS TIME STEP      L**3/T
        ------------------                 ------------------------

              IN:                                      IN:
              ---                                      ---
             BOUNDARIES =       8.0830E-09            BOUNDARIES =       1.6762E-07
          CONSTANT HEAD =       7.3483E-03         CONSTANT HEAD =           0.1539
            ZONE CHANGE =       6.2680E-04           ZONE CHANGE =       1.0524E-02
       ZONE CHG TIP/TOE =       1.5997E-05      ZONE CHG TIP/TOE =       3.3437E-05
            ZONE MIXING =           0.0000           ZONE MIXING =           0.0000

               TOTAL IN =       7.9911E-03              TOTAL IN =           0.1645

             OUT:                                     OUT:
             ----                                     ----
             BOUNDARIES =       7.9800E-03            BOUNDARIES =           0.1642
          CONSTANT HEAD =           0.0000         CONSTANT HEAD =           0.0000
            ZONE CHANGE =       1.0621E-05           ZONE CHANGE =       3.0084E-04
       ZONE CHG TIP/TOE =       9.7683E-08      ZONE CHG TIP/TOE =       3.7927E-06
            ZONE MIXING =           0.0000           ZONE MIXING =           0.0000

              TOTAL OUT =       7.9907E-03             TOTAL OUT =           0.1645

               IN - OUT =       3.2224E-07              IN - OUT =       1.0133E-06

    PERCENT DISCREPANCY =           0.00     PERCENT DISCREPANCY =           0.00



                      VOLUMETRIC SWI ZONE BUDGET FOR ENTIRE MODEL
                     AT END OF TIME STEP   40 IN STRESS PERIOD   1
                                      ZONE     2
  -----------------------------------------------------------------------------------

        CUMULATIVE VOLUMES      L**3       RATES FOR THIS TIME STEP      L**3/T
        ------------------                 ------------------------

              IN:                                      IN:
              ---                                      ---
             BOUNDARIES =       3.1568E-14            BOUNDARIES =       6.5005E-13
          CONSTANT HEAD =       5.6488E-04         CONSTANT HEAD =       1.0232E-02
            ZONE CHANGE =       9.7904E-06           ZONE CHANGE =       2.8271E-04
       ZONE CHG TIP/TOE =       9.7683E-08      ZONE CHG TIP/TOE =       3.7927E-06
            ZONE MIXING =           0.0000           ZONE MIXING =           0.0000

               TOTAL IN =       5.7477E-04              TOTAL IN =       1.0518E-02

             OUT:                                     OUT:
             ----                                     ----
             BOUNDARIES =       3.1299E-14            BOUNDARIES =       5.9879E-13
          CONSTANT HEAD =           0.0000         CONSTANT HEAD =           0.0000
            ZONE CHANGE =       5.5991E-04           ZONE CHANGE =       1.0504E-02
       ZONE CHG TIP/TOE =       1.5166E-05      ZONE CHG TIP/TOE =       1.5311E-05
            ZONE MIXING =           0.0000           ZONE MIXING =           0.0000

              TOTAL OUT =       5.7508E-04             TOTAL OUT =       1.0519E-02

               IN - OUT =      -3.0996E-07              IN - OUT =      -7.3295E-07

    PERCENT DISCREPANCY =          -0.05     PERCENT DISCREPANCY =          -0.01


 HEAD WILL BE SAVED ON UNIT   51 AT END OF TIME STEP   40, STRESS PERIOD    1
1
  VOLUMETRIC BUDGET FOR ENTIRE MODEL AT END OF TIME STEP   40, STRESS PERIOD   1
  ------------------------------------------------------------------------------

     CUMULATIVE VOLUMES      L**3       RATES FOR THIS TIME STEP      L**3/T
     ------------------                 ------------------------

           IN:                                      IN:
           ---                                      ---
             STORAGE =       6.6871E-05               STORAGE =       1.9715E-05
       CONSTANT HEAD =       7.9131E-03         CONSTANT HEAD =           0.1641
               WELLS =           0.0000                 WELLS =           0.0000
          SWIADDTOCH =           0.0000            SWIADDTOCH =           0.0000

            TOTAL IN =       7.9800E-03              TOTAL IN =           0.1642

          OUT:                                     OUT:
          ----                                     ----
             STORAGE =       1.8163E-10               STORAGE =       3.3760E-09
       CONSTANT HEAD =           0.0000         CONSTANT HEAD =           0.0000
               WELLS =       7.9800E-03                 WELLS =           0.1642
          SWIADDTOCH =       9.3655E-11            SWIADDTOCH =           0.0000

           TOTAL OUT =       7.9800E-03             TOTAL OUT =           0.1642

            IN - OUT =      -8.3819E-09              IN - OUT =      -2.9802E-08

 PERCENT DISCREPANCY =          -0.00     PERCENT DISCREPANCY =          -0.00






         TIME SUMMARY AT END OF TIME STEP   40 IN STRESS PERIOD    1
                    SECONDS     MINUTES      HOURS       DAYS        YEARS
                    -----------------------------------------------------------
   TIME STEP LENGTH  105.00      1.7500     2.91667E-02 1.21528E-03 3.32726E-06
 STRESS PERIOD TIME  4200.0      70.000      1.1667     4.86112E-02 1.33090E-04
         TOTAL TIME  4200.0      70.000      1.1667     4.86112E-02 1.33090E-04
1

 SOLVING FOR HEAD 
     2 EXTERNAL ITERATIONS FOR TIME STEP  41 IN STRESS PERIOD    1

 MAXIMUM HEAD CHANGE FOR EACH ITERATION:

     HEAD CHANGE  LAY,ROW,COL      HEAD CHANGE  LAY,ROW,COL  
 ------------------------------------------------------------
     2.830E-05 (  7,    1, 1000)  -2.350E-07 (  6,    1,  999)



 OUTPUT CONTROL FOR STRESS PERIOD    1   TIME STEP   41
    PRINT BUDGET
    SAVE HEAD FOR ALL LAYERS
 SOLVING FOR ZETA FOR LAYER     6 ZONE     2

     496 UPPER PART EQS.       494 LOWER PART EQS.    BAND WIDTH + 1 =    4
 STRESS PERIOD=  1 TIMESTEP= 41 LAYER=  6 ZONE=  2 ACTIVE CELLS=  990 NUMBER OF EQUATIONS=     990
 UBUDSV SAVING "      ZETASRF  1" ON UNIT 55 AT TIME STEP 41, STRESS PERIOD    1


                      VOLUMETRIC SWI ZONE BUDGET FOR ENTIRE MODEL
                     AT END OF TIME STEP   41 IN STRESS PERIOD   1
                                      ZONE     1
  -----------------------------------------------------------------------------------

        CUMULATIVE VOLUMES      L**3       RATES FOR THIS TIME STEP      L**3/T
        ------------------                 ------------------------

              IN:                                      IN:
              ---                                      ---
             BOUNDARIES =       8.2815E-09            BOUNDARIES =       1.6332E-07
          CONSTANT HEAD =       7.5354E-03         CONSTANT HEAD =           0.1540
            ZONE CHANGE =       6.3991E-04           ZONE CHANGE =       1.0789E-02
       ZONE CHG TIP/TOE =       1.6044E-05      ZONE CHG TIP/TOE =       3.8321E-05
            ZONE MIXING =           0.0000           ZONE MIXING =           0.0000

               TOTAL IN =       8.1913E-03              TOTAL IN =           0.1648

             OUT:                                     OUT:
             ----                                     ----
             BOUNDARIES =       8.1795E-03            BOUNDARIES =           0.1642
          CONSTANT HEAD =           0.0000         CONSTANT HEAD =           0.0000
            ZONE CHANGE =       1.1387E-05           ZONE CHANGE =       6.2974E-04
       ZONE CHG TIP/TOE =       9.9040E-08      ZONE CHG TIP/TOE =       1.1170E-06
            ZONE MIXING =           0.0000           ZONE MIXING =           0.0000

              TOTAL OUT =       8.1910E-03             TOTAL OUT =           0.1648

               IN - OUT =       3.3807E-07              IN - OUT =       1.1504E-05

    PERCENT DISCREPANCY =           0.00     PERCENT DISCREPANCY =           0.01



                      VOLUMETRIC SWI ZONE BUDGET FOR ENTIRE MODEL
                     AT END OF TIME STEP   41 IN STRESS PERIOD   1
                                      ZONE     2
  -----------------------------------------------------------------------------------

        CUMULATIVE VOLUMES      L**3       RATES FOR THIS TIME STEP      L**3/T
        ------------------                 ------------------------

              IN:                                      IN:
              ---                                      ---
             BOUNDARIES =       3.2399E-14            BOUNDARIES =       6.8387E-13
          CONSTANT HEAD =       5.7723E-04         CONSTANT HEAD =       1.0165E-02
            ZONE CHANGE =       1.0524E-05           ZONE CHANGE =       6.0378E-04
       ZONE CHG TIP/TOE =       9.9040E-08      ZONE CHG TIP/TOE =       1.1170E-06
            ZONE MIXING =           0.0000           ZONE MIXING =           0.0000

               TOTAL IN =       5.8786E-04              TOTAL IN =       1.0770E-02

             OUT:                                     OUT:
             ----                                     ----
             BOUNDARIES =       3.2074E-14            BOUNDARIES =       6.3768E-13
          CONSTANT HEAD =           0.0000         CONSTANT HEAD =           0.0000
            ZONE CHANGE =       5.7300E-04           ZONE CHANGE =       1.0769E-02
       ZONE CHG TIP/TOE =       1.5181E-05      ZONE CHG TIP/TOE =       1.2352E-05
            ZONE MIXING =           0.0000           ZONE MIXING =           0.0000

              TOTAL OUT =       5.8818E-04             TOTAL OUT =       1.0781E-02

               IN - OUT =      -3.2363E-07              IN - OUT =      -1.1221E-05

    PERCENT DISCREPANCY =          -0.06     PERCENT DISCREPANCY =          -0.10


 HEAD WILL BE SAVED ON UNIT   51 AT END OF TIME STEP   41, STRESS PERIOD    1
1
  VOLUMETRIC BUDGET FOR ENTIRE MODEL AT END OF TIME STEP   41, STRESS PERIOD   1
  ------------------------------------------------------------------------------

     CUMULATIVE VOLUMES      L**3       RATES FOR THIS TIME STEP      L**3/T
     ------------------                 ------------------------

           IN:                                      IN:
           ---                                      ---
             STORAGE =       6.6895E-05               STORAGE =       1.9767E-05
       CONSTANT HEAD =       8.1126E-03         CONSTANT HEAD =           0.1641
               WELLS =           0.0000                 WELLS =           0.0000
          SWIADDTOCH =           0.0000            SWIADDTOCH =           0.0000

            TOTAL IN =       8.1795E-03              TOTAL IN =           0.1642

          OUT:                                     OUT:
          ----                                     ----
             STORAGE =       1.8799E-10               STORAGE =       5.2321E-09
       CONSTANT HEAD =           0.0000         CONSTANT HEAD =           0.0000
               WELLS =       8.1795E-03                 WELLS =           0.1642
          SWIADDTOCH =       1.1888E-10            SWIADDTOCH =       2.0752E-08

           TOTAL OUT =       8.1795E-03             TOTAL OUT =           0.1642

            IN - OUT =      -8.3819E-09              IN - OUT =       1.4901E-08

 PERCENT DISCREPANCY =          -0.00     PERCENT DISCREPANCY =           0.00






         TIME SUMMARY AT END OF TIME STEP   41 IN STRESS PERIOD    1
                    SECONDS     MINUTES      HOURS       DAYS        YEARS
                    -----------------------------------------------------------
   TIME STEP LENGTH  105.00      1.7500     2.91667E-02 1.21528E-03 3.32726E-06
 STRESS PERIOD TIME  4305.0      71.750      1.1958     4.98265E-02 1.36417E-04
         TOTAL TIME  4305.0      71.750      1.1958     4.98265E-02 1.36417E-04
1

 SOLVING FOR HEAD 
     2 EXTERNAL ITERATIONS FOR TIME STEP  42 IN STRESS PERIOD    1

 MAXIMUM HEAD CHANGE FOR EACH ITERATION:

     HEAD CHANGE  LAY,ROW,COL      HEAD CHANGE  LAY,ROW,COL  
 ------------------------------------------------------------
     2.796E-05 (  7,    1, 1000)  -2.359E-07 (  6,    1,  999)



 OUTPUT CONTROL FOR STRESS PERIOD    1   TIME STEP   42
    PRINT BUDGET
    SAVE HEAD FOR ALL LAYERS
 SOLVING FOR ZETA FOR LAYER     6 ZONE     2

     491 UPPER PART EQS.       494 LOWER PART EQS.    BAND WIDTH + 1 =    4
 STRESS PERIOD=  1 TIMESTEP= 42 LAYER=  6 ZONE=  2 ACTIVE CELLS=  985 NUMBER OF EQUATIONS=     985
 UBUDSV SAVING "      ZETASRF  1" ON UNIT 55 AT TIME STEP 42, STRESS PERIOD    1


                      VOLUMETRIC SWI ZONE BUDGET FOR ENTIRE MODEL
                     AT END OF TIME STEP   42 IN STRESS PERIOD   1
                                      ZONE     1
  -----------------------------------------------------------------------------------

        CUMULATIVE VOLUMES      L**3       RATES FOR THIS TIME STEP      L**3/T
        ------------------                 ------------------------

              IN:                                      IN:
              ---                                      ---
             BOUNDARIES =       8.4848E-09            BOUNDARIES =       1.6731E-07
          CONSTANT HEAD =       7.7226E-03         CONSTANT HEAD =           0.1540
            ZONE CHANGE =       6.5293E-04           ZONE CHANGE =       1.0717E-02
       ZONE CHG TIP/TOE =       1.6097E-05      ZONE CHG TIP/TOE =       4.3730E-05
            ZONE MIXING =           0.0000           ZONE MIXING =           0.0000

               TOTAL IN =       8.3916E-03              TOTAL IN =           0.1648

             OUT:                                     OUT:
             ----                                     ----
             BOUNDARIES =       8.3790E-03            BOUNDARIES =           0.1642
          CONSTANT HEAD =           0.0000         CONSTANT HEAD =           0.0000
            ZONE CHANGE =       1.2152E-05           ZONE CHANGE =       6.2991E-04
       ZONE CHG TIP/TOE =       1.0116E-07      ZONE CHG TIP/TOE =       1.7484E-06
            ZONE MIXING =           0.0000           ZONE MIXING =           0.0000

              TOTAL OUT =       8.3913E-03             TOTAL OUT =           0.1648

               IN - OUT =       3.4925E-07              IN - OUT =       1.0088E-05

    PERCENT DISCREPANCY =           0.00     PERCENT DISCREPANCY =           0.01



                      VOLUMETRIC SWI ZONE BUDGET FOR ENTIRE MODEL
                     AT END OF TIME STEP   42 IN STRESS PERIOD   1
                                      ZONE     2
  -----------------------------------------------------------------------------------

        CUMULATIVE VOLUMES      L**3       RATES FOR THIS TIME STEP      L**3/T
        ------------------                 ------------------------

              IN:                                      IN:
              ---                                      ---
             BOUNDARIES =       3.3217E-14            BOUNDARIES =       6.7326E-13
          CONSTANT HEAD =       5.8951E-04         CONSTANT HEAD =       1.0099E-02
            ZONE CHANGE =       1.1257E-05           ZONE CHANGE =       6.0280E-04
       ZONE CHG TIP/TOE =       1.0116E-07      ZONE CHG TIP/TOE =       1.7484E-06
            ZONE MIXING =           0.0000           ZONE MIXING =           0.0000

               TOTAL IN =       6.0086E-04              TOTAL IN =       1.0704E-02

             OUT:                                     OUT:
             ----                                     ----
             BOUNDARIES =       3.2842E-14            BOUNDARIES =       6.3224E-13
          CONSTANT HEAD =           0.0000         CONSTANT HEAD =           0.0000
            ZONE CHANGE =       5.8600E-04           ZONE CHANGE =       1.0697E-02
       ZONE CHG TIP/TOE =       1.5201E-05      ZONE CHG TIP/TOE =       1.6622E-05
            ZONE MIXING =           0.0000           ZONE MIXING =           0.0000

              TOTAL OUT =       6.0120E-04             TOTAL OUT =       1.0714E-02

               IN - OUT =      -3.3551E-07              IN - OUT =      -9.8292E-06

    PERCENT DISCREPANCY =          -0.06     PERCENT DISCREPANCY =          -0.09


 HEAD WILL BE SAVED ON UNIT   51 AT END OF TIME STEP   42, STRESS PERIOD    1
1
  VOLUMETRIC BUDGET FOR ENTIRE MODEL AT END OF TIME STEP   42, STRESS PERIOD   1
  ------------------------------------------------------------------------------

     CUMULATIVE VOLUMES      L**3       RATES FOR THIS TIME STEP      L**3/T
     ------------------                 ------------------------

           IN:                                      IN:
           ---                                      ---
             STORAGE =       6.6919E-05               STORAGE =       1.9824E-05
       CONSTANT HEAD =       8.3121E-03         CONSTANT HEAD =           0.1641
               WELLS =           0.0000                 WELLS =           0.0000
          SWIADDTOCH =           0.0000            SWIADDTOCH =           0.0000

            TOTAL IN =       8.3790E-03              TOTAL IN =           0.1642

          OUT:                                     OUT:
          ----                                     ----
             STORAGE =       1.9434E-10               STORAGE =       5.2286E-09
       CONSTANT HEAD =           0.0000         CONSTANT HEAD =           0.0000
               WELLS =       8.3790E-03                 WELLS =           0.1642
          SWIADDTOCH =       1.1888E-10            SWIADDTOCH =           0.0000

           TOTAL OUT =       8.3790E-03             TOTAL OUT =           0.1642

            IN - OUT =      -9.3132E-09              IN - OUT =      -1.4901E-08

 PERCENT DISCREPANCY =          -0.00     PERCENT DISCREPANCY =          -0.00






         TIME SUMMARY AT END OF TIME STEP   42 IN STRESS PERIOD    1
                    SECONDS     MINUTES      HOURS       DAYS        YEARS
                    -----------------------------------------------------------
   TIME STEP LENGTH  105.00      1.7500     2.91667E-02 1.21528E-03 3.32726E-06
 STRESS PERIOD TIME  4410.0      73.500      1.2250     5.10417E-02 1.39745E-04
         TOTAL TIME  4410.0      73.500      1.2250     5.10417E-02 1.39745E-04
1

 SOLVING FOR HEAD 
     2 EXTERNAL ITERATIONS FOR TIME STEP  43 IN STRESS PERIOD    1

 MAXIMUM HEAD CHANGE FOR EACH ITERATION:

     HEAD CHANGE  LAY,ROW,COL      HEAD CHANGE  LAY,ROW,COL  
 ------------------------------------------------------------
     2.760E-05 (  7,    1, 1000)  -2.369E-07 (  6,    1, 1000)



 OUTPUT CONTROL FOR STRESS PERIOD    1   TIME STEP   43
    PRINT BUDGET
    SAVE HEAD FOR ALL LAYERS
 SOLVING FOR ZETA FOR LAYER     6 ZONE     2

     492 UPPER PART EQS.       494 LOWER PART EQS.    BAND WIDTH + 1 =    3
 STRESS PERIOD=  1 TIMESTEP= 43 LAYER=  6 ZONE=  2 ACTIVE CELLS=  986 NUMBER OF EQUATIONS=     986
 UBUDSV SAVING "      ZETASRF  1" ON UNIT 55 AT TIME STEP 43, STRESS PERIOD    1


                      VOLUMETRIC SWI ZONE BUDGET FOR ENTIRE MODEL
                     AT END OF TIME STEP   43 IN STRESS PERIOD   1
                                      ZONE     1
  -----------------------------------------------------------------------------------

        CUMULATIVE VOLUMES      L**3       RATES FOR THIS TIME STEP      L**3/T
        ------------------                 ------------------------

              IN:                                      IN:
              ---                                      ---
             BOUNDARIES =       8.7027E-09            BOUNDARIES =       1.7928E-07
          CONSTANT HEAD =       7.9099E-03         CONSTANT HEAD =           0.1541
            ZONE CHANGE =       6.6571E-04           ZONE CHANGE =       1.0512E-02
       ZONE CHG TIP/TOE =       1.6158E-05      ZONE CHG TIP/TOE =       5.0292E-05
            ZONE MIXING =           0.0000           ZONE MIXING =           0.0000

               TOTAL IN =       8.5917E-03              TOTAL IN =           0.1647

             OUT:                                     OUT:
             ----                                     ----
             BOUNDARIES =       8.5785E-03            BOUNDARIES =           0.1642
          CONSTANT HEAD =           0.0000         CONSTANT HEAD =           0.0000
            ZONE CHANGE =       1.2750E-05           ZONE CHANGE =       4.9190E-04
       ZONE CHG TIP/TOE =       1.0262E-07      ZONE CHG TIP/TOE =       1.1992E-06
            ZONE MIXING =           0.0000           ZONE MIXING =           0.0000

              TOTAL OUT =       8.5914E-03             TOTAL OUT =           0.1647

               IN - OUT =       3.6694E-07              IN - OUT =       1.4812E-05

    PERCENT DISCREPANCY =           0.00     PERCENT DISCREPANCY =           0.01



                      VOLUMETRIC SWI ZONE BUDGET FOR ENTIRE MODEL
                     AT END OF TIME STEP   43 IN STRESS PERIOD   1
                                      ZONE     2
  -----------------------------------------------------------------------------------

        CUMULATIVE VOLUMES      L**3       RATES FOR THIS TIME STEP      L**3/T
        ------------------                 ------------------------

              IN:                                      IN:
              ---                                      ---
             BOUNDARIES =       3.3938E-14            BOUNDARIES =       5.9321E-13
          CONSTANT HEAD =       6.0170E-04         CONSTANT HEAD =       1.0034E-02
            ZONE CHANGE =       1.1818E-05           ZONE CHANGE =       4.6179E-04
       ZONE CHG TIP/TOE =       1.0262E-07      ZONE CHG TIP/TOE =       1.1992E-06
            ZONE MIXING =           0.0000           ZONE MIXING =           0.0000

               TOTAL IN =       6.1362E-04              TOTAL IN =       1.0497E-02

             OUT:                                     OUT:
             ----                                     ----
             BOUNDARIES =       3.3731E-14            BOUNDARIES =       7.3108E-13
          CONSTANT HEAD =           0.0000         CONSTANT HEAD =           0.0000
            ZONE CHANGE =       5.9875E-04           ZONE CHANGE =       1.0492E-02
       ZONE CHG TIP/TOE =       1.5226E-05      ZONE CHG TIP/TOE =       2.0175E-05
            ZONE MIXING =           0.0000           ZONE MIXING =           0.0000

              TOTAL OUT =       6.1397E-04             TOTAL OUT =       1.0512E-02

               IN - OUT =      -3.5320E-07              IN - OUT =      -1.4558E-05

    PERCENT DISCREPANCY =          -0.06     PERCENT DISCREPANCY =          -0.14


 HEAD WILL BE SAVED ON UNIT   51 AT END OF TIME STEP   43, STRESS PERIOD    1
1
  VOLUMETRIC BUDGET FOR ENTIRE MODEL AT END OF TIME STEP   43, STRESS PERIOD   1
  ------------------------------------------------------------------------------

     CUMULATIVE VOLUMES      L**3       RATES FOR THIS TIME STEP      L**3/T
     ------------------                 ------------------------

           IN:                                      IN:
           ---                                      ---
             STORAGE =       6.6943E-05               STORAGE =       1.9860E-05
       CONSTANT HEAD =       8.5116E-03         CONSTANT HEAD =           0.1641
               WELLS =           0.0000                 WELLS =           0.0000
          SWIADDTOCH =           0.0000            SWIADDTOCH =           0.0000

            TOTAL IN =       8.5785E-03              TOTAL IN =           0.1642

          OUT:                                     OUT:
          ----                                     ----
             STORAGE =       1.9956E-10               STORAGE =       4.2914E-09
       CONSTANT HEAD =           0.0000         CONSTANT HEAD =           0.0000
               WELLS =       8.5785E-03                 WELLS =           0.1642
          SWIADDTOCH =       1.1888E-10            SWIADDTOCH =           0.0000

           TOTAL OUT =       8.5785E-03             TOTAL OUT =           0.1642

            IN - OUT =      -9.3132E-09              IN - OUT =      -4.4703E-08

 PERCENT DISCREPANCY =          -0.00     PERCENT DISCREPANCY =          -0.00






         TIME SUMMARY AT END OF TIME STEP   43 IN STRESS PERIOD    1
                    SECONDS     MINUTES      HOURS       DAYS        YEARS
                    -----------------------------------------------------------
   TIME STEP LENGTH  105.00      1.7500     2.91667E-02 1.21528E-03 3.32726E-06
 STRESS PERIOD TIME  4515.0      75.250      1.2542     5.22570E-02 1.43072E-04
         TOTAL TIME  4515.0      75.250      1.2542     5.22570E-02 1.43072E-04
1

 SOLVING FOR HEAD 
     2 EXTERNAL ITERATIONS FOR TIME STEP  44 IN STRESS PERIOD    1

 MAXIMUM HEAD CHANGE FOR EACH ITERATION:

     HEAD CHANGE  LAY,ROW,COL      HEAD CHANGE  LAY,ROW,COL  
 ------------------------------------------------------------
     2.721E-05 (  7,    1, 1000)  -2.379E-07 (  6,    1, 1000)



 OUTPUT CONTROL FOR STRESS PERIOD    1   TIME STEP   44
    PRINT BUDGET
    SAVE HEAD FOR ALL LAYERS
 SOLVING FOR ZETA FOR LAYER     6 ZONE     2

     493 UPPER PART EQS.       493 LOWER PART EQS.    BAND WIDTH + 1 =    3
 STRESS PERIOD=  1 TIMESTEP= 44 LAYER=  6 ZONE=  2 ACTIVE CELLS=  986 NUMBER OF EQUATIONS=     986
 UBUDSV SAVING "      ZETASRF  1" ON UNIT 55 AT TIME STEP 44, STRESS PERIOD    1


                      VOLUMETRIC SWI ZONE BUDGET FOR ENTIRE MODEL
                     AT END OF TIME STEP   44 IN STRESS PERIOD   1
                                      ZONE     1
  -----------------------------------------------------------------------------------

        CUMULATIVE VOLUMES      L**3       RATES FOR THIS TIME STEP      L**3/T
        ------------------                 ------------------------

              IN:                                      IN:
              ---                                      ---
             BOUNDARIES =       8.9139E-09            BOUNDARIES =       1.7383E-07
          CONSTANT HEAD =       8.0972E-03         CONSTANT HEAD =           0.1542
            ZONE CHANGE =       6.7830E-04           ZONE CHANGE =       1.0363E-02
       ZONE CHG TIP/TOE =       1.6219E-05      ZONE CHG TIP/TOE =       5.0586E-05
            ZONE MIXING =           0.0000           ZONE MIXING =           0.0000

               TOTAL IN =       8.7918E-03              TOTAL IN =           0.1646

             OUT:                                     OUT:
             ----                                     ----
             BOUNDARIES =       8.7780E-03            BOUNDARIES =           0.1642
          CONSTANT HEAD =           0.0000         CONSTANT HEAD =           0.0000
            ZONE CHANGE =       1.3247E-05           ZONE CHANGE =       4.0877E-04
       ZONE CHG TIP/TOE =       1.0607E-07      ZONE CHG TIP/TOE =       2.8381E-06
            ZONE MIXING =           0.0000           ZONE MIXING =           0.0000

              TOTAL OUT =       8.7914E-03             TOTAL OUT =           0.1646

               IN - OUT =       3.8277E-07              IN - OUT =       1.2934E-05

    PERCENT DISCREPANCY =           0.00     PERCENT DISCREPANCY =           0.01



                      VOLUMETRIC SWI ZONE BUDGET FOR ENTIRE MODEL
                     AT END OF TIME STEP   44 IN STRESS PERIOD   1
                                      ZONE     2
  -----------------------------------------------------------------------------------

        CUMULATIVE VOLUMES      L**3       RATES FOR THIS TIME STEP      L**3/T
        ------------------                 ------------------------

              IN:                                      IN:
              ---                                      ---
             BOUNDARIES =       3.4671E-14            BOUNDARIES =       6.0329E-13
          CONSTANT HEAD =       6.1382E-04         CONSTANT HEAD =       9.9694E-03
            ZONE CHANGE =       1.2277E-05           ZONE CHANGE =       3.7792E-04
       ZONE CHG TIP/TOE =       1.0607E-07      ZONE CHG TIP/TOE =       2.8381E-06
            ZONE MIXING =           0.0000           ZONE MIXING =           0.0000

               TOTAL IN =       6.2620E-04              TOTAL IN =       1.0350E-02

             OUT:                                     OUT:
             ----                                     ----
             BOUNDARIES =       3.4532E-14            BOUNDARIES =       6.5907E-13
          CONSTANT HEAD =           0.0000         CONSTANT HEAD =           0.0000
            ZONE CHANGE =       6.1132E-04           ZONE CHANGE =       1.0343E-02
       ZONE CHG TIP/TOE =       1.5250E-05      ZONE CHG TIP/TOE =       1.9737E-05
            ZONE MIXING =           0.0000           ZONE MIXING =           0.0000

              TOTAL OUT =       6.2657E-04             TOTAL OUT =       1.0363E-02

               IN - OUT =      -3.6857E-07              IN - OUT =      -1.2652E-05

    PERCENT DISCREPANCY =          -0.06     PERCENT DISCREPANCY =          -0.12


 HEAD WILL BE SAVED ON UNIT   51 AT END OF TIME STEP   44, STRESS PERIOD    1
1
  VOLUMETRIC BUDGET FOR ENTIRE MODEL AT END OF TIME STEP   44, STRESS PERIOD   1
  ------------------------------------------------------------------------------

     CUMULATIVE VOLUMES      L**3       RATES FOR THIS TIME STEP      L**3/T
     ------------------                 ------------------------

           IN:                                      IN:
           ---                                      ---
             STORAGE =       6.6967E-05               STORAGE =       1.9941E-05
       CONSTANT HEAD =       8.7110E-03         CONSTANT HEAD =           0.1641
               WELLS =           0.0000                 WELLS =           0.0000
          SWIADDTOCH =           0.0000            SWIADDTOCH =           0.0000

            TOTAL IN =       8.7780E-03              TOTAL IN =           0.1642

          OUT:                                     OUT:
          ----                                     ----
             STORAGE =       2.0590E-10               STORAGE =       5.2153E-09
       CONSTANT HEAD =           0.0000         CONSTANT HEAD =           0.0000
               WELLS =       8.7780E-03                 WELLS =           0.1642
          SWIADDTOCH =       1.1888E-10            SWIADDTOCH =           0.0000

           TOTAL OUT =       8.7780E-03             TOTAL OUT =           0.1642

            IN - OUT =      -9.3132E-09              IN - OUT =      -2.9802E-08

 PERCENT DISCREPANCY =          -0.00     PERCENT DISCREPANCY =          -0.00






         TIME SUMMARY AT END OF TIME STEP   44 IN STRESS PERIOD    1
                    SECONDS     MINUTES      HOURS       DAYS        YEARS
                    -----------------------------------------------------------
   TIME STEP LENGTH  105.00      1.7500     2.91667E-02 1.21528E-03 3.32726E-06
 STRESS PERIOD TIME  4620.0      77.000      1.2833     5.34723E-02 1.46399E-04
         TOTAL TIME  4620.0      77.000      1.2833     5.34723E-02 1.46399E-04
1

 SOLVING FOR HEAD 
     2 EXTERNAL ITERATIONS FOR TIME STEP  45 IN STRESS PERIOD    1

 MAXIMUM HEAD CHANGE FOR EACH ITERATION:

     HEAD CHANGE  LAY,ROW,COL      HEAD CHANGE  LAY,ROW,COL  
 ------------------------------------------------------------
     2.690E-05 (  7,    1, 1000)  -2.369E-07 (  6,    1, 1000)



 OUTPUT CONTROL FOR STRESS PERIOD    1   TIME STEP   45
    PRINT BUDGET
    SAVE HEAD FOR ALL LAYERS
 SOLVING FOR ZETA FOR LAYER     6 ZONE     2

     492 UPPER PART EQS.       490 LOWER PART EQS.    BAND WIDTH + 1 =    4
 STRESS PERIOD=  1 TIMESTEP= 45 LAYER=  6 ZONE=  2 ACTIVE CELLS=  982 NUMBER OF EQUATIONS=     982
 UBUDSV SAVING "      ZETASRF  1" ON UNIT 55 AT TIME STEP 45, STRESS PERIOD    1


                      VOLUMETRIC SWI ZONE BUDGET FOR ENTIRE MODEL
                     AT END OF TIME STEP   45 IN STRESS PERIOD   1
                                      ZONE     1
  -----------------------------------------------------------------------------------

        CUMULATIVE VOLUMES      L**3       RATES FOR THIS TIME STEP      L**3/T
        ------------------                 ------------------------

              IN:                                      IN:
              ---                                      ---
             BOUNDARIES =       9.1107E-09            BOUNDARIES =       1.6193E-07
          CONSTANT HEAD =       8.2847E-03         CONSTANT HEAD =           0.1542
            ZONE CHANGE =       6.9077E-04           ZONE CHANGE =       1.0261E-02
       ZONE CHG TIP/TOE =       1.6284E-05      ZONE CHG TIP/TOE =       5.3075E-05
            ZONE MIXING =           0.0000           ZONE MIXING =           0.0000

               TOTAL IN =       8.9917E-03              TOTAL IN =           0.1646

             OUT:                                     OUT:
             ----                                     ----
             BOUNDARIES =       8.9775E-03            BOUNDARIES =           0.1642
          CONSTANT HEAD =           0.0000         CONSTANT HEAD =           0.0000
            ZONE CHANGE =       1.3709E-05           ZONE CHANGE =       3.8021E-04
       ZONE CHG TIP/TOE =       1.0847E-07      ZONE CHG TIP/TOE =       1.9767E-06
            ZONE MIXING =           0.0000           ZONE MIXING =           0.0000

              TOTAL OUT =       8.9913E-03             TOTAL OUT =           0.1645

               IN - OUT =       3.9395E-07              IN - OUT =       8.2701E-06

    PERCENT DISCREPANCY =           0.00     PERCENT DISCREPANCY =           0.01



                      VOLUMETRIC SWI ZONE BUDGET FOR ENTIRE MODEL
                     AT END OF TIME STEP   45 IN STRESS PERIOD   1
                                      ZONE     2
  -----------------------------------------------------------------------------------

        CUMULATIVE VOLUMES      L**3       RATES FOR THIS TIME STEP      L**3/T
        ------------------                 ------------------------

              IN:                                      IN:
              ---                                      ---
             BOUNDARIES =       3.5503E-14            BOUNDARIES =       6.8450E-13
          CONSTANT HEAD =       6.2585E-04         CONSTANT HEAD =       9.9040E-03
            ZONE CHANGE =       1.2707E-05           ZONE CHANGE =       3.5364E-04
       ZONE CHG TIP/TOE =       1.0847E-07      ZONE CHG TIP/TOE =       1.9767E-06
            ZONE MIXING =           0.0000           ZONE MIXING =           0.0000

               TOTAL IN =       6.3867E-04              TOTAL IN =       1.0260E-02

             OUT:                                     OUT:
             ----                                     ----
             BOUNDARIES =       3.5304E-14            BOUNDARIES =       6.3546E-13
          CONSTANT HEAD =           0.0000         CONSTANT HEAD =           0.0000
            ZONE CHANGE =       6.2376E-04           ZONE CHANGE =       1.0241E-02
       ZONE CHG TIP/TOE =       1.5282E-05      ZONE CHG TIP/TOE =       2.6507E-05
            ZONE MIXING =           0.0000           ZONE MIXING =           0.0000

              TOTAL OUT =       6.3905E-04             TOTAL OUT =       1.0268E-02

               IN - OUT =      -3.7823E-07              IN - OUT =      -8.0029E-06

    PERCENT DISCREPANCY =          -0.06     PERCENT DISCREPANCY =          -0.08


 HEAD WILL BE SAVED ON UNIT   51 AT END OF TIME STEP   45, STRESS PERIOD    1
1
  VOLUMETRIC BUDGET FOR ENTIRE MODEL AT END OF TIME STEP   45, STRESS PERIOD   1
  ------------------------------------------------------------------------------

     CUMULATIVE VOLUMES      L**3       RATES FOR THIS TIME STEP      L**3/T
     ------------------                 ------------------------

           IN:                                      IN:
           ---                                      ---
             STORAGE =       6.6991E-05               STORAGE =       1.9891E-05
       CONSTANT HEAD =       8.9105E-03         CONSTANT HEAD =           0.1641
               WELLS =           0.0000                 WELLS =           0.0000
          SWIADDTOCH =           0.0000            SWIADDTOCH =           0.0000

            TOTAL IN =       8.9775E-03              TOTAL IN =           0.1642

          OUT:                                     OUT:
          ----                                     ----
             STORAGE =       2.1449E-10               STORAGE =       7.0729E-09
       CONSTANT HEAD =           0.0000         CONSTANT HEAD =           0.0000
               WELLS =       8.9775E-03                 WELLS =           0.1642
          SWIADDTOCH =       1.1888E-10            SWIADDTOCH =           0.0000

           TOTAL OUT =       8.9775E-03             TOTAL OUT =           0.1642

            IN - OUT =      -9.3132E-09              IN - OUT =      -2.9802E-08

 PERCENT DISCREPANCY =          -0.00     PERCENT DISCREPANCY =          -0.00






         TIME SUMMARY AT END OF TIME STEP   45 IN STRESS PERIOD    1
                    SECONDS     MINUTES      HOURS       DAYS        YEARS
                    -----------------------------------------------------------
   TIME STEP LENGTH  105.00      1.7500     2.91667E-02 1.21528E-03 3.32726E-06
 STRESS PERIOD TIME  4725.0      78.750      1.3125     5.46876E-02 1.49726E-04
         TOTAL TIME  4725.0      78.750      1.3125     5.46876E-02 1.49726E-04
1

 SOLVING FOR HEAD 
     2 EXTERNAL ITERATIONS FOR TIME STEP  46 IN STRESS PERIOD    1

 MAXIMUM HEAD CHANGE FOR EACH ITERATION:

     HEAD CHANGE  LAY,ROW,COL      HEAD CHANGE  LAY,ROW,COL  
 ------------------------------------------------------------
     2.651E-05 (  7,    1, 1000)  -2.383E-07 (  6,    1, 1000)



 OUTPUT CONTROL FOR STRESS PERIOD    1   TIME STEP   46
    PRINT BUDGET
    SAVE HEAD FOR ALL LAYERS
 SOLVING FOR ZETA FOR LAYER     6 ZONE     2

     493 UPPER PART EQS.       493 LOWER PART EQS.    BAND WIDTH + 1 =    3
 STRESS PERIOD=  1 TIMESTEP= 46 LAYER=  6 ZONE=  2 ACTIVE CELLS=  986 NUMBER OF EQUATIONS=     986
 UBUDSV SAVING "      ZETASRF  1" ON UNIT 55 AT TIME STEP 46, STRESS PERIOD    1


                      VOLUMETRIC SWI ZONE BUDGET FOR ENTIRE MODEL
                     AT END OF TIME STEP   46 IN STRESS PERIOD   1
                                      ZONE     1
  -----------------------------------------------------------------------------------

        CUMULATIVE VOLUMES      L**3       RATES FOR THIS TIME STEP      L**3/T
        ------------------                 ------------------------

              IN:                                      IN:
              ---                                      ---
             BOUNDARIES =       9.3028E-09            BOUNDARIES =       1.5807E-07
          CONSTANT HEAD =       8.4722E-03         CONSTANT HEAD =           0.1543
            ZONE CHANGE =       7.0315E-04           ZONE CHANGE =       1.0188E-02
       ZONE CHG TIP/TOE =       1.6347E-05      ZONE CHG TIP/TOE =       5.2249E-05
            ZONE MIXING =           0.0000           ZONE MIXING =           0.0000

               TOTAL IN =       9.1917E-03              TOTAL IN =           0.1645

             OUT:                                     OUT:
             ----                                     ----
             BOUNDARIES =       9.1770E-03            BOUNDARIES =           0.1642
          CONSTANT HEAD =           0.0000         CONSTANT HEAD =           0.0000
            ZONE CHANGE =       1.4155E-05           ZONE CHANGE =       3.6736E-04
       ZONE CHG TIP/TOE =       1.0935E-07      ZONE CHG TIP/TOE =       7.2061E-07
            ZONE MIXING =           0.0000           ZONE MIXING =           0.0000

              TOTAL OUT =       9.1913E-03             TOTAL OUT =           0.1645

               IN - OUT =       4.1071E-07              IN - OUT =       1.3143E-05

    PERCENT DISCREPANCY =           0.00     PERCENT DISCREPANCY =           0.01



                      VOLUMETRIC SWI ZONE BUDGET FOR ENTIRE MODEL
                     AT END OF TIME STEP   46 IN STRESS PERIOD   1
                                      ZONE     2
  -----------------------------------------------------------------------------------

        CUMULATIVE VOLUMES      L**3       RATES FOR THIS TIME STEP      L**3/T
        ------------------                 ------------------------

              IN:                                      IN:
              ---                                      ---
             BOUNDARIES =       3.6283E-14            BOUNDARIES =       6.4181E-13
          CONSTANT HEAD =       6.3781E-04         CONSTANT HEAD =       9.8391E-03
            ZONE CHANGE =       1.3116E-05           ZONE CHANGE =       3.3676E-04
       ZONE CHG TIP/TOE =       1.0935E-07      ZONE CHG TIP/TOE =       7.2061E-07
            ZONE MIXING =           0.0000           ZONE MIXING =           0.0000

               TOTAL IN =       6.5104E-04              TOTAL IN =       1.0177E-02

             OUT:                                     OUT:
             ----                                     ----
             BOUNDARIES =       3.6104E-14            BOUNDARIES =       6.5857E-13
          CONSTANT HEAD =           0.0000         CONSTANT HEAD =           0.0000
            ZONE CHANGE =       6.3612E-04           ZONE CHANGE =       1.0168E-02
       ZONE CHG TIP/TOE =       1.5308E-05      ZONE CHG TIP/TOE =       2.1647E-05
            ZONE MIXING =           0.0000           ZONE MIXING =           0.0000

              TOTAL OUT =       6.5143E-04             TOTAL OUT =       1.0189E-02

               IN - OUT =      -3.9389E-07              IN - OUT =      -1.2876E-05

    PERCENT DISCREPANCY =          -0.06     PERCENT DISCREPANCY =          -0.13


 HEAD WILL BE SAVED ON UNIT   51 AT END OF TIME STEP   46, STRESS PERIOD    1
1
  VOLUMETRIC BUDGET FOR ENTIRE MODEL AT END OF TIME STEP   46, STRESS PERIOD   1
  ------------------------------------------------------------------------------

     CUMULATIVE VOLUMES      L**3       RATES FOR THIS TIME STEP      L**3/T
     ------------------                 ------------------------

           IN:                                      IN:
           ---                                      ---
             STORAGE =       6.7016E-05               STORAGE =       1.9938E-05
       CONSTANT HEAD =       9.1100E-03         CONSTANT HEAD =           0.1641
               WELLS =           0.0000                 WELLS =           0.0000
          SWIADDTOCH =           0.0000            SWIADDTOCH =           0.0000

            TOTAL IN =       9.1770E-03              TOTAL IN =           0.1642

          OUT:                                     OUT:
          ----                                     ----
             STORAGE =       2.2308E-10               STORAGE =       7.0652E-09
       CONSTANT HEAD =           0.0000         CONSTANT HEAD =           0.0000
               WELLS =       9.1770E-03                 WELLS =           0.1642
          SWIADDTOCH =       1.1888E-10            SWIADDTOCH =           0.0000

           TOTAL OUT =       9.1770E-03             TOTAL OUT =           0.1642

            IN - OUT =      -9.3132E-09              IN - OUT =      -2.9802E-08

 PERCENT DISCREPANCY =          -0.00     PERCENT DISCREPANCY =          -0.00






         TIME SUMMARY AT END OF TIME STEP   46 IN STRESS PERIOD    1
                    SECONDS     MINUTES      HOURS       DAYS        YEARS
                    -----------------------------------------------------------
   TIME STEP LENGTH  105.00      1.7500     2.91667E-02 1.21528E-03 3.32726E-06
 STRESS PERIOD TIME  4830.0      80.500      1.3417     5.59029E-02 1.53054E-04
         TOTAL TIME  4830.0      80.500      1.3417     5.59029E-02 1.53054E-04
1

 SOLVING FOR HEAD 
     2 EXTERNAL ITERATIONS FOR TIME STEP  47 IN STRESS PERIOD    1

 MAXIMUM HEAD CHANGE FOR EACH ITERATION:

     HEAD CHANGE  LAY,ROW,COL      HEAD CHANGE  LAY,ROW,COL  
 ------------------------------------------------------------
     2.617E-05 (  7,    1, 1000)  -2.385E-07 (  6,    1, 1000)



 OUTPUT CONTROL FOR STRESS PERIOD    1   TIME STEP   47
    PRINT BUDGET
    SAVE HEAD FOR ALL LAYERS
 SOLVING FOR ZETA FOR LAYER     6 ZONE     2

     491 UPPER PART EQS.       494 LOWER PART EQS.    BAND WIDTH + 1 =    5
 STRESS PERIOD=  1 TIMESTEP= 47 LAYER=  6 ZONE=  2 ACTIVE CELLS=  985 NUMBER OF EQUATIONS=     985
 UBUDSV SAVING "      ZETASRF  1" ON UNIT 55 AT TIME STEP 47, STRESS PERIOD    1


                      VOLUMETRIC SWI ZONE BUDGET FOR ENTIRE MODEL
                     AT END OF TIME STEP   47 IN STRESS PERIOD   1
                                      ZONE     1
  -----------------------------------------------------------------------------------

        CUMULATIVE VOLUMES      L**3       RATES FOR THIS TIME STEP      L**3/T
        ------------------                 ------------------------

              IN:                                      IN:
              ---                                      ---
             BOUNDARIES =       9.5127E-09            BOUNDARIES =       1.7273E-07
          CONSTANT HEAD =       8.6598E-03         CONSTANT HEAD =           0.1544
            ZONE CHANGE =       7.1543E-04           ZONE CHANGE =       1.0105E-02
       ZONE CHG TIP/TOE =       1.6404E-05      ZONE CHG TIP/TOE =       4.6371E-05
            ZONE MIXING =           0.0000           ZONE MIXING =           0.0000

               TOTAL IN =       9.3916E-03              TOTAL IN =           0.1645

             OUT:                                     OUT:
             ----                                     ----
             BOUNDARIES =       9.3765E-03            BOUNDARIES =           0.1642
          CONSTANT HEAD =           0.0000         CONSTANT HEAD =           0.0000
            ZONE CHANGE =       1.4583E-05           ZONE CHANGE =       3.5179E-04
       ZONE CHG TIP/TOE =       1.1180E-07      ZONE CHG TIP/TOE =       2.0178E-06
            ZONE MIXING =           0.0000           ZONE MIXING =           0.0000

              TOTAL OUT =       9.3912E-03             TOTAL OUT =           0.1645

               IN - OUT =       4.1351E-07              IN - OUT =       3.5167E-06

    PERCENT DISCREPANCY =           0.00     PERCENT DISCREPANCY =           0.00



                      VOLUMETRIC SWI ZONE BUDGET FOR ENTIRE MODEL
                     AT END OF TIME STEP   47 IN STRESS PERIOD   1
                                      ZONE     2
  -----------------------------------------------------------------------------------

        CUMULATIVE VOLUMES      L**3       RATES FOR THIS TIME STEP      L**3/T
        ------------------                 ------------------------

              IN:                                      IN:
              ---                                      ---
             BOUNDARIES =       3.7134E-14            BOUNDARIES =       7.0026E-13
          CONSTANT HEAD =       6.4969E-04         CONSTANT HEAD =       9.7739E-03
            ZONE CHANGE =       1.3515E-05           ZONE CHANGE =       3.2826E-04
       ZONE CHG TIP/TOE =       1.1180E-07      ZONE CHG TIP/TOE =       2.0178E-06
            ZONE MIXING =           0.0000           ZONE MIXING =           0.0000

               TOTAL IN =       6.6331E-04              TOTAL IN =       1.0104E-02

             OUT:                                     OUT:
             ----                                     ----
             BOUNDARIES =       3.6872E-14            BOUNDARIES =       6.3129E-13
          CONSTANT HEAD =           0.0000         CONSTANT HEAD =           0.0000
            ZONE CHANGE =       6.4838E-04           ZONE CHANGE =       1.0085E-02
       ZONE CHG TIP/TOE =       1.5336E-05      ZONE CHG TIP/TOE =       2.2833E-05
            ZONE MIXING =           0.0000           ZONE MIXING =           0.0000

              TOTAL OUT =       6.6371E-04             TOTAL OUT =       1.0107E-02

               IN - OUT =      -3.9779E-07              IN - OUT =      -3.2270E-06

    PERCENT DISCREPANCY =          -0.06     PERCENT DISCREPANCY =          -0.03


 HEAD WILL BE SAVED ON UNIT   51 AT END OF TIME STEP   47, STRESS PERIOD    1
1
  VOLUMETRIC BUDGET FOR ENTIRE MODEL AT END OF TIME STEP   47, STRESS PERIOD   1
  ------------------------------------------------------------------------------

     CUMULATIVE VOLUMES      L**3       RATES FOR THIS TIME STEP      L**3/T
     ------------------                 ------------------------

           IN:                                      IN:
           ---                                      ---
             STORAGE =       6.7040E-05               STORAGE =       1.9903E-05
       CONSTANT HEAD =       9.3095E-03         CONSTANT HEAD =           0.1641
               WELLS =           0.0000                 WELLS =           0.0000
          SWIADDTOCH =           0.0000            SWIADDTOCH =           0.0000

            TOTAL IN =       9.3765E-03              TOTAL IN =           0.1642

          OUT:                                     OUT:
          ----                                     ----
             STORAGE =       2.2939E-10               STORAGE =       5.1968E-09
       CONSTANT HEAD =           0.0000         CONSTANT HEAD =           0.0000
               WELLS =       9.3765E-03                 WELLS =           0.1642
          SWIADDTOCH =       1.4720E-10            SWIADDTOCH =       2.3308E-08

           TOTAL OUT =       9.3765E-03             TOTAL OUT =           0.1642

            IN - OUT =      -9.3132E-09              IN - OUT =      -5.9605E-08

 PERCENT DISCREPANCY =          -0.00     PERCENT DISCREPANCY =          -0.00






         TIME SUMMARY AT END OF TIME STEP   47 IN STRESS PERIOD    1
                    SECONDS     MINUTES      HOURS       DAYS        YEARS
                    -----------------------------------------------------------
   TIME STEP LENGTH  105.00      1.7500     2.91667E-02 1.21528E-03 3.32726E-06
 STRESS PERIOD TIME  4935.0      82.250      1.3708     5.71181E-02 1.56381E-04
         TOTAL TIME  4935.0      82.250      1.3708     5.71181E-02 1.56381E-04
1

 SOLVING FOR HEAD 
     2 EXTERNAL ITERATIONS FOR TIME STEP  48 IN STRESS PERIOD    1

 MAXIMUM HEAD CHANGE FOR EACH ITERATION:

     HEAD CHANGE  LAY,ROW,COL      HEAD CHANGE  LAY,ROW,COL  
 ------------------------------------------------------------
     2.582E-05 (  7,    1, 1000)  -2.389E-07 (  6,    1, 1000)



 OUTPUT CONTROL FOR STRESS PERIOD    1   TIME STEP   48
    PRINT BUDGET
    SAVE HEAD FOR ALL LAYERS
 SOLVING FOR ZETA FOR LAYER     6 ZONE     2

     493 UPPER PART EQS.       493 LOWER PART EQS.    BAND WIDTH + 1 =    4
 STRESS PERIOD=  1 TIMESTEP= 48 LAYER=  6 ZONE=  2 ACTIVE CELLS=  986 NUMBER OF EQUATIONS=     986
 UBUDSV SAVING "      ZETASRF  1" ON UNIT 55 AT TIME STEP 48, STRESS PERIOD    1


                      VOLUMETRIC SWI ZONE BUDGET FOR ENTIRE MODEL
                     AT END OF TIME STEP   48 IN STRESS PERIOD   1
                                      ZONE     1
  -----------------------------------------------------------------------------------

        CUMULATIVE VOLUMES      L**3       RATES FOR THIS TIME STEP      L**3/T
        ------------------                 ------------------------

              IN:                                      IN:
              ---                                      ---
             BOUNDARIES =       9.7219E-09            BOUNDARIES =       1.7209E-07
          CONSTANT HEAD =       8.8475E-03         CONSTANT HEAD =           0.1544
            ZONE CHANGE =       7.2764E-04           ZONE CHANGE =       1.0047E-02
       ZONE CHG TIP/TOE =       1.6458E-05      ZONE CHG TIP/TOE =       4.4365E-05
            ZONE MIXING =           0.0000           ZONE MIXING =           0.0000

               TOTAL IN =       9.5916E-03              TOTAL IN =           0.1645

             OUT:                                     OUT:
             ----                                     ----
             BOUNDARIES =       9.5760E-03            BOUNDARIES =           0.1642
          CONSTANT HEAD =           0.0000         CONSTANT HEAD =           0.0000
            ZONE CHANGE =       1.5020E-05           ZONE CHANGE =       3.5951E-04
       ZONE CHG TIP/TOE =       1.1730E-07      ZONE CHG TIP/TOE =       4.5281E-06
            ZONE MIXING =           0.0000           ZONE MIXING =           0.0000

              TOTAL OUT =       9.5912E-03             TOTAL OUT =           0.1645

               IN - OUT =       4.1164E-07              IN - OUT =      -1.9372E-06

    PERCENT DISCREPANCY =           0.00     PERCENT DISCREPANCY =          -0.00



                      VOLUMETRIC SWI ZONE BUDGET FOR ENTIRE MODEL
                     AT END OF TIME STEP   48 IN STRESS PERIOD   1
                                      ZONE     2
  -----------------------------------------------------------------------------------

        CUMULATIVE VOLUMES      L**3       RATES FOR THIS TIME STEP      L**3/T
        ------------------                 ------------------------

              IN:                                      IN:
              ---                                      ---
             BOUNDARIES =       3.7923E-14            BOUNDARIES =       6.4881E-13
          CONSTANT HEAD =       6.6149E-04         CONSTANT HEAD =       9.7092E-03
            ZONE CHANGE =       1.3926E-05           ZONE CHANGE =       3.3836E-04
       ZONE CHG TIP/TOE =       1.1730E-07      ZONE CHG TIP/TOE =       4.5281E-06
            ZONE MIXING =           0.0000           ZONE MIXING =           0.0000

               TOTAL IN =       6.7553E-04              TOTAL IN =       1.0052E-02

             OUT:                                     OUT:
             ----                                     ----
             BOUNDARIES =       3.7658E-14            BOUNDARIES =       6.4722E-13
          CONSTANT HEAD =           0.0000         CONSTANT HEAD =           0.0000
            ZONE CHANGE =       6.6056E-04           ZONE CHANGE =       1.0027E-02
       ZONE CHG TIP/TOE =       1.5364E-05      ZONE CHG TIP/TOE =       2.3212E-05
            ZONE MIXING =           0.0000           ZONE MIXING =           0.0000

              TOTAL OUT =       6.7593E-04             TOTAL OUT =       1.0050E-02

               IN - OUT =      -3.9511E-07              IN - OUT =       2.2091E-06

    PERCENT DISCREPANCY =          -0.06     PERCENT DISCREPANCY =           0.02


 HEAD WILL BE SAVED ON UNIT   51 AT END OF TIME STEP   48, STRESS PERIOD    1
1
  VOLUMETRIC BUDGET FOR ENTIRE MODEL AT END OF TIME STEP   48, STRESS PERIOD   1
  ------------------------------------------------------------------------------

     CUMULATIVE VOLUMES      L**3       RATES FOR THIS TIME STEP      L**3/T
     ------------------                 ------------------------

           IN:                                      IN:
           ---                                      ---
             STORAGE =       6.7064E-05               STORAGE =       1.9916E-05
       CONSTANT HEAD =       9.5089E-03         CONSTANT HEAD =           0.1641
               WELLS =           0.0000                 WELLS =           0.0000
          SWIADDTOCH =           0.0000            SWIADDTOCH =           0.0000

            TOTAL IN =       9.5760E-03              TOTAL IN =           0.1642

          OUT:                                     OUT:
          ----                                     ----
             STORAGE =       2.4136E-10               STORAGE =       9.8472E-09
       CONSTANT HEAD =           0.0000         CONSTANT HEAD =           0.0000
               WELLS =       9.5760E-03                 WELLS =           0.1642
          SWIADDTOCH =       1.4720E-10            SWIADDTOCH =           0.0000

           TOTAL OUT =       9.5760E-03             TOTAL OUT =           0.1642

            IN - OUT =      -9.3132E-09              IN - OUT =      -5.9605E-08

 PERCENT DISCREPANCY =          -0.00     PERCENT DISCREPANCY =          -0.00






         TIME SUMMARY AT END OF TIME STEP   48 IN STRESS PERIOD    1
                    SECONDS     MINUTES      HOURS       DAYS        YEARS
                    -----------------------------------------------------------
   TIME STEP LENGTH  105.00      1.7500     2.91667E-02 1.21528E-03 3.32726E-06
 STRESS PERIOD TIME  5040.0      84.000      1.4000     5.83334E-02 1.59708E-04
         TOTAL TIME  5040.0      84.000      1.4000     5.83334E-02 1.59708E-04
1

 SOLVING FOR HEAD 
     2 EXTERNAL ITERATIONS FOR TIME STEP  49 IN STRESS PERIOD    1

 MAXIMUM HEAD CHANGE FOR EACH ITERATION:

     HEAD CHANGE  LAY,ROW,COL      HEAD CHANGE  LAY,ROW,COL  
 ------------------------------------------------------------
     2.548E-05 (  7,    1, 1000)  -2.391E-07 (  6,    1,  999)



 OUTPUT CONTROL FOR STRESS PERIOD    1   TIME STEP   49
    PRINT BUDGET
    SAVE HEAD FOR ALL LAYERS
 SOLVING FOR ZETA FOR LAYER     6 ZONE     2

     493 UPPER PART EQS.       492 LOWER PART EQS.    BAND WIDTH + 1 =    3
 STRESS PERIOD=  1 TIMESTEP= 49 LAYER=  6 ZONE=  2 ACTIVE CELLS=  985 NUMBER OF EQUATIONS=     985
 UBUDSV SAVING "      ZETASRF  1" ON UNIT 55 AT TIME STEP 49, STRESS PERIOD    1


                      VOLUMETRIC SWI ZONE BUDGET FOR ENTIRE MODEL
                     AT END OF TIME STEP   49 IN STRESS PERIOD   1
                                      ZONE     1
  -----------------------------------------------------------------------------------

        CUMULATIVE VOLUMES      L**3       RATES FOR THIS TIME STEP      L**3/T
        ------------------                 ------------------------

              IN:                                      IN:
              ---                                      ---
             BOUNDARIES =       9.9345E-09            BOUNDARIES =       1.7499E-07
          CONSTANT HEAD =       9.0352E-03         CONSTANT HEAD =           0.1545
            ZONE CHANGE =       7.3978E-04           ZONE CHANGE =       9.9902E-03
       ZONE CHG TIP/TOE =       1.6502E-05      ZONE CHG TIP/TOE =       3.6614E-05
            ZONE MIXING =           0.0000           ZONE MIXING =           0.0000

               TOTAL IN =       9.7915E-03              TOTAL IN =           0.1645

             OUT:                                     OUT:
             ----                                     ----
             BOUNDARIES =       9.7755E-03            BOUNDARIES =           0.1642
          CONSTANT HEAD =           0.0000         CONSTANT HEAD =           0.0000
            ZONE CHANGE =       1.5461E-05           ZONE CHANGE =       3.6291E-04
       ZONE CHG TIP/TOE =       1.2021E-07      ZONE CHG TIP/TOE =       2.3917E-06
            ZONE MIXING =           0.0000           ZONE MIXING =           0.0000

              TOTAL OUT =       9.7911E-03             TOTAL OUT =           0.1645

               IN - OUT =       4.0792E-07              IN - OUT =      -3.2336E-06

    PERCENT DISCREPANCY =           0.00     PERCENT DISCREPANCY =          -0.00



                      VOLUMETRIC SWI ZONE BUDGET FOR ENTIRE MODEL
                     AT END OF TIME STEP   49 IN STRESS PERIOD   1
                                      ZONE     2
  -----------------------------------------------------------------------------------

        CUMULATIVE VOLUMES      L**3       RATES FOR THIS TIME STEP      L**3/T
        ------------------                 ------------------------

              IN:                                      IN:
              ---                                      ---
             BOUNDARIES =       3.8695E-14            BOUNDARIES =       6.3559E-13
          CONSTANT HEAD =       6.7321E-04         CONSTANT HEAD =       9.6448E-03
            ZONE CHANGE =       1.4344E-05           ZONE CHANGE =       3.4373E-04
       ZONE CHG TIP/TOE =       1.2021E-07      ZONE CHG TIP/TOE =       2.3917E-06
            ZONE MIXING =           0.0000           ZONE MIXING =           0.0000

               TOTAL IN =       6.8767E-04              TOTAL IN =       9.9909E-03

             OUT:                                     OUT:
             ----                                     ----
             BOUNDARIES =       3.8420E-14            BOUNDARIES =       6.2718E-13
          CONSTANT HEAD =           0.0000         CONSTANT HEAD =           0.0000
            ZONE CHANGE =       6.7268E-04           ZONE CHANGE =       9.9700E-03
       ZONE CHG TIP/TOE =       1.5385E-05      ZONE CHG TIP/TOE =       1.7435E-05
            ZONE MIXING =           0.0000           ZONE MIXING =           0.0000

              TOTAL OUT =       6.8806E-04             TOTAL OUT =       9.9874E-03

               IN - OUT =      -3.9092E-07              IN - OUT =       3.5055E-06

    PERCENT DISCREPANCY =          -0.06     PERCENT DISCREPANCY =           0.04


 HEAD WILL BE SAVED ON UNIT   51 AT END OF TIME STEP   49, STRESS PERIOD    1
1
  VOLUMETRIC BUDGET FOR ENTIRE MODEL AT END OF TIME STEP   49, STRESS PERIOD   1
  ------------------------------------------------------------------------------

     CUMULATIVE VOLUMES      L**3       RATES FOR THIS TIME STEP      L**3/T
     ------------------                 ------------------------

           IN:                                      IN:
           ---                                      ---
             STORAGE =       6.7088E-05               STORAGE =       1.9879E-05
       CONSTANT HEAD =       9.7084E-03         CONSTANT HEAD =           0.1641
               WELLS =           0.0000                 WELLS =           0.0000
          SWIADDTOCH =           0.0000            SWIADDTOCH =           0.0000

            TOTAL IN =       9.7755E-03              TOTAL IN =           0.1642

          OUT:                                     OUT:
          ----                                     ----
             STORAGE =       2.4313E-10               STORAGE =       1.4593E-09
       CONSTANT HEAD =           0.0000         CONSTANT HEAD =           0.0000
               WELLS =       9.7755E-03                 WELLS =           0.1642
          SWIADDTOCH =       1.4720E-10            SWIADDTOCH =           0.0000

           TOTAL OUT =       9.7755E-03             TOTAL OUT =           0.1642

            IN - OUT =      -9.3132E-09              IN - OUT =      -7.4506E-08

 PERCENT DISCREPANCY =          -0.00     PERCENT DISCREPANCY =          -0.00






         TIME SUMMARY AT END OF TIME STEP   49 IN STRESS PERIOD    1
                    SECONDS     MINUTES      HOURS       DAYS        YEARS
                    -----------------------------------------------------------
   TIME STEP LENGTH  105.00      1.7500     2.91667E-02 1.21528E-03 3.32726E-06
 STRESS PERIOD TIME  5145.0      85.750      1.4292     5.95487E-02 1.63035E-04
         TOTAL TIME  5145.0      85.750      1.4292     5.95487E-02 1.63035E-04
1

 SOLVING FOR HEAD 
     2 EXTERNAL ITERATIONS FOR TIME STEP  50 IN STRESS PERIOD    1

 MAXIMUM HEAD CHANGE FOR EACH ITERATION:

     HEAD CHANGE  LAY,ROW,COL      HEAD CHANGE  LAY,ROW,COL  
 ------------------------------------------------------------
     2.514E-05 (  7,    1, 1000)  -2.395E-07 (  6,    1,  999)



 OUTPUT CONTROL FOR STRESS PERIOD    1   TIME STEP   50
    PRINT BUDGET
    SAVE HEAD FOR ALL LAYERS
 SOLVING FOR ZETA FOR LAYER     6 ZONE     2

     493 UPPER PART EQS.       495 LOWER PART EQS.    BAND WIDTH + 1 =    3
 STRESS PERIOD=  1 TIMESTEP= 50 LAYER=  6 ZONE=  2 ACTIVE CELLS=  988 NUMBER OF EQUATIONS=     988
 UBUDSV SAVING "      ZETASRF  1" ON UNIT 55 AT TIME STEP 50, STRESS PERIOD    1


                      VOLUMETRIC SWI ZONE BUDGET FOR ENTIRE MODEL
                     AT END OF TIME STEP   50 IN STRESS PERIOD   1
                                      ZONE     1
  -----------------------------------------------------------------------------------

        CUMULATIVE VOLUMES      L**3       RATES FOR THIS TIME STEP      L**3/T
        ------------------                 ------------------------

              IN:                                      IN:
              ---                                      ---
             BOUNDARIES =       1.0139E-08            BOUNDARIES =       1.6798E-07
          CONSTANT HEAD =       9.2230E-03         CONSTANT HEAD =           0.1546
            ZONE CHANGE =       7.5182E-04           ZONE CHANGE =       9.9024E-03
       ZONE CHG TIP/TOE =       1.6532E-05      ZONE CHG TIP/TOE =       2.4279E-05
            ZONE MIXING =           0.0000           ZONE MIXING =           0.0000

               TOTAL IN =       9.9914E-03              TOTAL IN =           0.1645

             OUT:                                     OUT:
             ----                                     ----
             BOUNDARIES =       9.9750E-03            BOUNDARIES =           0.1642
          CONSTANT HEAD =           0.0000         CONSTANT HEAD =           0.0000
            ZONE CHANGE =       1.5864E-05           ZONE CHANGE =       3.3175E-04
       ZONE CHG TIP/TOE =       1.2452E-07      ZONE CHG TIP/TOE =       3.5465E-06
            ZONE MIXING =           0.0000           ZONE MIXING =           0.0000

              TOTAL OUT =       9.9910E-03             TOTAL OUT =           0.1645

               IN - OUT =       3.9581E-07              IN - OUT =      -9.2089E-06

    PERCENT DISCREPANCY =           0.00     PERCENT DISCREPANCY =          -0.01



                      VOLUMETRIC SWI ZONE BUDGET FOR ENTIRE MODEL
                     AT END OF TIME STEP   50 IN STRESS PERIOD   1
                                      ZONE     2
  -----------------------------------------------------------------------------------

        CUMULATIVE VOLUMES      L**3       RATES FOR THIS TIME STEP      L**3/T
        ------------------                 ------------------------

              IN:                                      IN:
              ---                                      ---
             BOUNDARIES =       3.9476E-14            BOUNDARIES =       6.4303E-13
          CONSTANT HEAD =       6.8485E-04         CONSTANT HEAD =       9.5806E-03
            ZONE CHANGE =       1.4730E-05           ZONE CHANGE =       3.1746E-04
       ZONE CHG TIP/TOE =       1.2452E-07      ZONE CHG TIP/TOE =       3.5465E-06
            ZONE MIXING =           0.0000           ZONE MIXING =           0.0000

               TOTAL IN =       6.9971E-04              TOTAL IN =       9.9016E-03

             OUT:                                     OUT:
             ----                                     ----
             BOUNDARIES =       3.9226E-14            BOUNDARIES =       6.6297E-13
          CONSTANT HEAD =           0.0000         CONSTANT HEAD =           0.0000
            ZONE CHANGE =       6.8469E-04           ZONE CHANGE =       9.8822E-03
       ZONE CHG TIP/TOE =       1.5397E-05      ZONE CHG TIP/TOE =       9.9972E-06
            ZONE MIXING =           0.0000           ZONE MIXING =           0.0000

              TOTAL OUT =       7.0009E-04             TOTAL OUT =       9.8922E-03

               IN - OUT =      -3.7946E-07              IN - OUT =       9.4566E-06

    PERCENT DISCREPANCY =          -0.05     PERCENT DISCREPANCY =           0.10


 HEAD WILL BE SAVED ON UNIT   51 AT END OF TIME STEP   50, STRESS PERIOD    1
1
  VOLUMETRIC BUDGET FOR ENTIRE MODEL AT END OF TIME STEP   50, STRESS PERIOD   1
  ------------------------------------------------------------------------------

     CUMULATIVE VOLUMES      L**3       RATES FOR THIS TIME STEP      L**3/T
     ------------------                 ------------------------

           IN:                                      IN:
           ---                                      ---
             STORAGE =       6.7112E-05               STORAGE =       1.9916E-05
       CONSTANT HEAD =       9.9079E-03         CONSTANT HEAD =           0.1641
               WELLS =           0.0000                 WELLS =           0.0000
          SWIADDTOCH =           0.0000            SWIADDTOCH =           0.0000

            TOTAL IN =       9.9750E-03              TOTAL IN =           0.1642

          OUT:                                     OUT:
          ----                                     ----
             STORAGE =       2.5169E-10               STORAGE =       7.0413E-09
       CONSTANT HEAD =           0.0000         CONSTANT HEAD =           0.0000
               WELLS =       9.9750E-03                 WELLS =           0.1642
          SWIADDTOCH =       1.4720E-10            SWIADDTOCH =           0.0000

           TOTAL OUT =       9.9750E-03             TOTAL OUT =           0.1642

            IN - OUT =      -9.3132E-09              IN - OUT =      -4.4703E-08

 PERCENT DISCREPANCY =          -0.00     PERCENT DISCREPANCY =          -0.00






         TIME SUMMARY AT END OF TIME STEP   50 IN STRESS PERIOD    1
                    SECONDS     MINUTES      HOURS       DAYS        YEARS
                    -----------------------------------------------------------
   TIME STEP LENGTH  105.00      1.7500     2.91667E-02 1.21528E-03 3.32726E-06
 STRESS PERIOD TIME  5250.0      87.500      1.4583     6.07640E-02 1.66363E-04
         TOTAL TIME  5250.0      87.500      1.4583     6.07640E-02 1.66363E-04
1

 SOLVING FOR HEAD 
     2 EXTERNAL ITERATIONS FOR TIME STEP  51 IN STRESS PERIOD    1

 MAXIMUM HEAD CHANGE FOR EACH ITERATION:

     HEAD CHANGE  LAY,ROW,COL      HEAD CHANGE  LAY,ROW,COL  
 ------------------------------------------------------------
     2.481E-05 (  7,    1, 1000)  -2.393E-07 (  6,    1, 1000)



 OUTPUT CONTROL FOR STRESS PERIOD    1   TIME STEP   51
    PRINT BUDGET
    SAVE HEAD FOR ALL LAYERS
 SOLVING FOR ZETA FOR LAYER     6 ZONE     2

     492 UPPER PART EQS.       494 LOWER PART EQS.    BAND WIDTH + 1 =    4
 STRESS PERIOD=  1 TIMESTEP= 51 LAYER=  6 ZONE=  2 ACTIVE CELLS=  986 NUMBER OF EQUATIONS=     986
 UBUDSV SAVING "      ZETASRF  1" ON UNIT 55 AT TIME STEP 51, STRESS PERIOD    1


                      VOLUMETRIC SWI ZONE BUDGET FOR ENTIRE MODEL
                     AT END OF TIME STEP   51 IN STRESS PERIOD   1
                                      ZONE     1
  -----------------------------------------------------------------------------------

        CUMULATIVE VOLUMES      L**3       RATES FOR THIS TIME STEP      L**3/T
        ------------------                 ------------------------

              IN:                                      IN:
              ---                                      ---
             BOUNDARIES =       1.0358E-08            BOUNDARIES =       1.8024E-07
          CONSTANT HEAD =       9.4110E-03         CONSTANT HEAD =           0.1546
            ZONE CHANGE =       7.6367E-04           ZONE CHANGE =       9.7487E-03
       ZONE CHG TIP/TOE =       1.6554E-05      ZONE CHG TIP/TOE =       1.7967E-05
            ZONE MIXING =           0.0000           ZONE MIXING =           0.0000

               TOTAL IN =       1.0191E-02              TOTAL IN =           0.1644

             OUT:                                     OUT:
             ----                                     ----
             BOUNDARIES =       1.0175E-02            BOUNDARIES =           0.1642
          CONSTANT HEAD =           0.0000         CONSTANT HEAD =           0.0000
            ZONE CHANGE =       1.6158E-05           ZONE CHANGE =       2.4166E-04
       ZONE CHG TIP/TOE =       1.3133E-07      ZONE CHG TIP/TOE =       5.6061E-06
            ZONE MIXING =           0.0000           ZONE MIXING =           0.0000

              TOTAL OUT =       1.0191E-02             TOTAL OUT =           0.1644

               IN - OUT =       3.7439E-07              IN - OUT =      -1.7390E-05

    PERCENT DISCREPANCY =           0.00     PERCENT DISCREPANCY =          -0.01



                      VOLUMETRIC SWI ZONE BUDGET FOR ENTIRE MODEL
                     AT END OF TIME STEP   51 IN STRESS PERIOD   1
                                      ZONE     2
  -----------------------------------------------------------------------------------

        CUMULATIVE VOLUMES      L**3       RATES FOR THIS TIME STEP      L**3/T
        ------------------                 ------------------------

              IN:                                      IN:
              ---                                      ---
             BOUNDARIES =       4.0217E-14            BOUNDARIES =       6.0970E-13
          CONSTANT HEAD =       6.9642E-04         CONSTANT HEAD =       9.5169E-03
            ZONE CHANGE =       1.5012E-05           ZONE CHANGE =       2.3174E-04
       ZONE CHG TIP/TOE =       1.3133E-07      ZONE CHG TIP/TOE =       5.6061E-06
            ZONE MIXING =           0.0000           ZONE MIXING =           0.0000

               TOTAL IN =       7.1156E-04              TOTAL IN =       9.7542E-03

             OUT:                                     OUT:
             ----                                     ----
             BOUNDARIES =       4.0036E-14            BOUNDARIES =       6.6616E-13
          CONSTANT HEAD =           0.0000         CONSTANT HEAD =           0.0000
            ZONE CHANGE =       6.9651E-04           ZONE CHANGE =       9.7285E-03
       ZONE CHG TIP/TOE =       1.5407E-05      ZONE CHG TIP/TOE =       8.0422E-06
            ZONE MIXING =           0.0000           ZONE MIXING =           0.0000

              TOTAL OUT =       7.1192E-04             TOTAL OUT =       9.7366E-03

               IN - OUT =      -3.5798E-07              IN - OUT =       1.7627E-05

    PERCENT DISCREPANCY =          -0.05     PERCENT DISCREPANCY =           0.18


 HEAD WILL BE SAVED ON UNIT   51 AT END OF TIME STEP   51, STRESS PERIOD    1
1
  VOLUMETRIC BUDGET FOR ENTIRE MODEL AT END OF TIME STEP   51, STRESS PERIOD   1
  ------------------------------------------------------------------------------

     CUMULATIVE VOLUMES      L**3       RATES FOR THIS TIME STEP      L**3/T
     ------------------                 ------------------------

           IN:                                      IN:
           ---                                      ---
             STORAGE =       6.7136E-05               STORAGE =       1.9897E-05
       CONSTANT HEAD =       1.0107E-02         CONSTANT HEAD =           0.1641
               WELLS =           0.0000                 WELLS =           0.0000
          SWIADDTOCH =           0.0000            SWIADDTOCH =           0.0000

            TOTAL IN =       1.0175E-02              TOTAL IN =           0.1642

          OUT:                                     OUT:
          ----                                     ----
             STORAGE =       2.5798E-10               STORAGE =       5.1730E-09
       CONSTANT HEAD =           0.0000         CONSTANT HEAD =           0.0000
               WELLS =       1.0175E-02                 WELLS =           0.1642
          SWIADDTOCH =       1.4720E-10            SWIADDTOCH =           0.0000

           TOTAL OUT =       1.0175E-02             TOTAL OUT =           0.1642

            IN - OUT =      -9.3132E-09              IN - OUT =      -7.4506E-08

 PERCENT DISCREPANCY =          -0.00     PERCENT DISCREPANCY =          -0.00






         TIME SUMMARY AT END OF TIME STEP   51 IN STRESS PERIOD    1
                    SECONDS     MINUTES      HOURS       DAYS        YEARS
                    -----------------------------------------------------------
   TIME STEP LENGTH  105.00      1.7500     2.91667E-02 1.21528E-03 3.32726E-06
 STRESS PERIOD TIME  5355.0      89.250      1.4875     6.19792E-02 1.69690E-04
         TOTAL TIME  5355.0      89.250      1.4875     6.19792E-02 1.69690E-04
1

 SOLVING FOR HEAD 
     2 EXTERNAL ITERATIONS FOR TIME STEP  52 IN STRESS PERIOD    1

 MAXIMUM HEAD CHANGE FOR EACH ITERATION:

     HEAD CHANGE  LAY,ROW,COL      HEAD CHANGE  LAY,ROW,COL  
 ------------------------------------------------------------
     2.450E-05 (  7,    1, 1000)  -2.391E-07 (  6,    1,  999)



 OUTPUT CONTROL FOR STRESS PERIOD    1   TIME STEP   52
    PRINT BUDGET
    SAVE HEAD FOR ALL LAYERS
 SOLVING FOR ZETA FOR LAYER     6 ZONE     2

     493 UPPER PART EQS.       494 LOWER PART EQS.    BAND WIDTH + 1 =    3
 STRESS PERIOD=  1 TIMESTEP= 52 LAYER=  6 ZONE=  2 ACTIVE CELLS=  987 NUMBER OF EQUATIONS=     987
 UBUDSV SAVING "      ZETASRF  1" ON UNIT 55 AT TIME STEP 52, STRESS PERIOD    1


                      VOLUMETRIC SWI ZONE BUDGET FOR ENTIRE MODEL
                     AT END OF TIME STEP   52 IN STRESS PERIOD   1
                                      ZONE     1
  -----------------------------------------------------------------------------------

        CUMULATIVE VOLUMES      L**3       RATES FOR THIS TIME STEP      L**3/T
        ------------------                 ------------------------

              IN:                                      IN:
              ---                                      ---
             BOUNDARIES =       1.0559E-08            BOUNDARIES =       1.6592E-07
          CONSTANT HEAD =       9.5989E-03         CONSTANT HEAD =           0.1547
            ZONE CHANGE =       7.7540E-04           ZONE CHANGE =       9.6584E-03
       ZONE CHG TIP/TOE =       1.6565E-05      ZONE CHG TIP/TOE =       9.5637E-06
            ZONE MIXING =           0.0000           ZONE MIXING =           0.0000

               TOTAL IN =       1.0391E-02              TOTAL IN =           0.1644

             OUT:                                     OUT:
             ----                                     ----
             BOUNDARIES =       1.0374E-02            BOUNDARIES =           0.1642
          CONSTANT HEAD =           0.0000         CONSTANT HEAD =           0.0000
            ZONE CHANGE =       1.6423E-05           ZONE CHANGE =       2.1850E-04
       ZONE CHG TIP/TOE =       1.3364E-07      ZONE CHG TIP/TOE =       1.9001E-06
            ZONE MIXING =           0.0000           ZONE MIXING =           0.0000

              TOTAL OUT =       1.0391E-02             TOTAL OUT =           0.1644

               IN - OUT =       3.4552E-07              IN - OUT =      -2.5570E-05

    PERCENT DISCREPANCY =           0.00     PERCENT DISCREPANCY =          -0.02



                      VOLUMETRIC SWI ZONE BUDGET FOR ENTIRE MODEL
                     AT END OF TIME STEP   52 IN STRESS PERIOD   1
                                      ZONE     2
  -----------------------------------------------------------------------------------

        CUMULATIVE VOLUMES      L**3       RATES FOR THIS TIME STEP      L**3/T
        ------------------                 ------------------------

              IN:                                      IN:
              ---                                      ---
             BOUNDARIES =       4.1072E-14            BOUNDARIES =       7.0332E-13
          CONSTANT HEAD =       7.0791E-04         CONSTANT HEAD =       9.4532E-03
            ZONE CHANGE =       1.5271E-05           ZONE CHANGE =       2.1383E-04
       ZONE CHG TIP/TOE =       1.3364E-07      ZONE CHG TIP/TOE =       1.9001E-06
            ZONE MIXING =           0.0000           ZONE MIXING =           0.0000

               TOTAL IN =       7.2331E-04              TOTAL IN =       9.6689E-03

             OUT:                                     OUT:
             ----                                     ----
             BOUNDARIES =       4.0779E-14            BOUNDARIES =       6.1198E-13
          CONSTANT HEAD =           0.0000         CONSTANT HEAD =           0.0000
            ZONE CHANGE =       7.0822E-04           ZONE CHANGE =       9.6382E-03
       ZONE CHG TIP/TOE =       1.5413E-05      ZONE CHG TIP/TOE =       4.8889E-06
            ZONE MIXING =           0.0000           ZONE MIXING =           0.0000

              TOTAL OUT =       7.2364E-04             TOTAL OUT =       9.6431E-03

               IN - OUT =      -3.2660E-07              IN - OUT =       2.5815E-05

    PERCENT DISCREPANCY =          -0.05     PERCENT DISCREPANCY =           0.27


 HEAD WILL BE SAVED ON UNIT   51 AT END OF TIME STEP   52, STRESS PERIOD    1
1
  VOLUMETRIC BUDGET FOR ENTIRE MODEL AT END OF TIME STEP   52, STRESS PERIOD   1
  ------------------------------------------------------------------------------

     CUMULATIVE VOLUMES      L**3       RATES FOR THIS TIME STEP      L**3/T
     ------------------                 ------------------------

           IN:                                      IN:
           ---                                      ---
             STORAGE =       6.7161E-05               STORAGE =       1.9871E-05
       CONSTANT HEAD =       1.0307E-02         CONSTANT HEAD =           0.1641
               WELLS =           0.0000                 WELLS =           0.0000
          SWIADDTOCH =           0.0000            SWIADDTOCH =           0.0000

            TOTAL IN =       1.0374E-02              TOTAL IN =           0.1642

          OUT:                                     OUT:
          ----                                     ----
             STORAGE =       2.5860E-10               STORAGE =       5.1083E-10
       CONSTANT HEAD =           0.0000         CONSTANT HEAD =           0.0000
               WELLS =       1.0374E-02                 WELLS =           0.1642
          SWIADDTOCH =       1.4720E-10            SWIADDTOCH =           0.0000

           TOTAL OUT =       1.0374E-02             TOTAL OUT =           0.1642

            IN - OUT =      -9.3132E-09              IN - OUT =      -4.4703E-08

 PERCENT DISCREPANCY =          -0.00     PERCENT DISCREPANCY =          -0.00






         TIME SUMMARY AT END OF TIME STEP   52 IN STRESS PERIOD    1
                    SECONDS     MINUTES      HOURS       DAYS        YEARS
                    -----------------------------------------------------------
   TIME STEP LENGTH  105.00      1.7500     2.91667E-02 1.21528E-03 3.32726E-06
 STRESS PERIOD TIME  5460.0      91.000      1.5167     6.31945E-02 1.73017E-04
         TOTAL TIME  5460.0      91.000      1.5167     6.31945E-02 1.73017E-04
1

 SOLVING FOR HEAD 
     2 EXTERNAL ITERATIONS FOR TIME STEP  53 IN STRESS PERIOD    1

 MAXIMUM HEAD CHANGE FOR EACH ITERATION:

     HEAD CHANGE  LAY,ROW,COL      HEAD CHANGE  LAY,ROW,COL  
 ------------------------------------------------------------
     2.415E-05 (  7,    1, 1000)  -2.395E-07 (  6,    1, 1000)



 OUTPUT CONTROL FOR STRESS PERIOD    1   TIME STEP   53
    PRINT BUDGET
    SAVE HEAD FOR ALL LAYERS
 SOLVING FOR ZETA FOR LAYER     6 ZONE     2

     497 UPPER PART EQS.       495 LOWER PART EQS.    BAND WIDTH + 1 =    4
 STRESS PERIOD=  1 TIMESTEP= 53 LAYER=  6 ZONE=  2 ACTIVE CELLS=  992 NUMBER OF EQUATIONS=     992
 UBUDSV SAVING "      ZETASRF  1" ON UNIT 55 AT TIME STEP 53, STRESS PERIOD    1


                      VOLUMETRIC SWI ZONE BUDGET FOR ENTIRE MODEL
                     AT END OF TIME STEP   53 IN STRESS PERIOD   1
                                      ZONE     1
  -----------------------------------------------------------------------------------

        CUMULATIVE VOLUMES      L**3       RATES FOR THIS TIME STEP      L**3/T
        ------------------                 ------------------------

              IN:                                      IN:
              ---                                      ---
             BOUNDARIES =       1.0746E-08            BOUNDARIES =       1.5396E-07
          CONSTANT HEAD =       9.7870E-03         CONSTANT HEAD =           0.1548
            ZONE CHANGE =       7.8701E-04           ZONE CHANGE =       9.5550E-03
       ZONE CHG TIP/TOE =       1.6576E-05      ZONE CHG TIP/TOE =       8.8686E-06
            ZONE MIXING =           0.0000           ZONE MIXING =           0.0000

               TOTAL IN =       1.0591E-02              TOTAL IN =           0.1643

             OUT:                                     OUT:
             ----                                     ----
             BOUNDARIES =       1.0574E-02            BOUNDARIES =           0.1642
          CONSTANT HEAD =           0.0000         CONSTANT HEAD =           0.0000
            ZONE CHANGE =       1.6619E-05           ZONE CHANGE =       1.6120E-04
       ZONE CHG TIP/TOE =       1.3561E-07      ZONE CHG TIP/TOE =       1.6211E-06
            ZONE MIXING =           0.0000           ZONE MIXING =           0.0000

              TOTAL OUT =       1.0590E-02             TOTAL OUT =           0.1643

               IN - OUT =       3.3341E-07              IN - OUT =      -8.8960E-06

    PERCENT DISCREPANCY =           0.00     PERCENT DISCREPANCY =          -0.01



                      VOLUMETRIC SWI ZONE BUDGET FOR ENTIRE MODEL
                     AT END OF TIME STEP   53 IN STRESS PERIOD   1
                                      ZONE     2
  -----------------------------------------------------------------------------------

        CUMULATIVE VOLUMES      L**3       RATES FOR THIS TIME STEP      L**3/T
        ------------------                 ------------------------

              IN:                                      IN:
              ---                                      ---
             BOUNDARIES =       4.1856E-14            BOUNDARIES =       6.4501E-13
          CONSTANT HEAD =       7.1932E-04         CONSTANT HEAD =       9.3900E-03
            ZONE CHANGE =       1.5457E-05           ZONE CHANGE =       1.5240E-04
       ZONE CHG TIP/TOE =       1.3561E-07      ZONE CHG TIP/TOE =       1.6211E-06
            ZONE MIXING =           0.0000           ZONE MIXING =           0.0000

               TOTAL IN =       7.3491E-04              TOTAL IN =       9.5440E-03

             OUT:                                     OUT:
             ----                                     ----
             BOUNDARIES =       4.1563E-14            BOUNDARIES =       6.4455E-13
          CONSTANT HEAD =           0.0000         CONSTANT HEAD =           0.0000
            ZONE CHANGE =       7.1981E-04           ZONE CHANGE =       9.5348E-03
       ZONE CHG TIP/TOE =       1.5413E-05      ZONE CHG TIP/TOE =       6.4907E-08
            ZONE MIXING =           0.0000           ZONE MIXING =           0.0000

              TOTAL OUT =       7.3522E-04             TOTAL OUT =       9.5349E-03

               IN - OUT =      -3.1543E-07              IN - OUT =       9.1223E-06

    PERCENT DISCREPANCY =          -0.04     PERCENT DISCREPANCY =           0.10


 HEAD WILL BE SAVED ON UNIT   51 AT END OF TIME STEP   53, STRESS PERIOD    1
1
  VOLUMETRIC BUDGET FOR ENTIRE MODEL AT END OF TIME STEP   53, STRESS PERIOD   1
  ------------------------------------------------------------------------------

     CUMULATIVE VOLUMES      L**3       RATES FOR THIS TIME STEP      L**3/T
     ------------------                 ------------------------

           IN:                                      IN:
           ---                                      ---
             STORAGE =       6.7185E-05               STORAGE =       1.9905E-05
       CONSTANT HEAD =       1.0506E-02         CONSTANT HEAD =           0.1641
               WELLS =           0.0000                 WELLS =           0.0000
          SWIADDTOCH =           0.0000            SWIADDTOCH =           0.0000

            TOTAL IN =       1.0574E-02              TOTAL IN =           0.1642

          OUT:                                     OUT:
          ----                                     ----
             STORAGE =       2.5921E-10               STORAGE =       5.0419E-10
       CONSTANT HEAD =           0.0000         CONSTANT HEAD =           0.0000
               WELLS =       1.0574E-02                 WELLS =           0.1642
          SWIADDTOCH =       1.4720E-10            SWIADDTOCH =           0.0000

           TOTAL OUT =       1.0574E-02             TOTAL OUT =           0.1642

            IN - OUT =      -9.3132E-09              IN - OUT =      -2.9802E-08

 PERCENT DISCREPANCY =          -0.00     PERCENT DISCREPANCY =          -0.00






         TIME SUMMARY AT END OF TIME STEP   53 IN STRESS PERIOD    1
                    SECONDS     MINUTES      HOURS       DAYS        YEARS
                    -----------------------------------------------------------
   TIME STEP LENGTH  105.00      1.7500     2.91667E-02 1.21528E-03 3.32726E-06
 STRESS PERIOD TIME  5565.0      92.750      1.5458     6.44098E-02 1.76344E-04
         TOTAL TIME  5565.0      92.750      1.5458     6.44098E-02 1.76344E-04
1

 SOLVING FOR HEAD 
     2 EXTERNAL ITERATIONS FOR TIME STEP  54 IN STRESS PERIOD    1

 MAXIMUM HEAD CHANGE FOR EACH ITERATION:

     HEAD CHANGE  LAY,ROW,COL      HEAD CHANGE  LAY,ROW,COL  
 ------------------------------------------------------------
     2.378E-05 (  7,    1, 1000)  -2.414E-07 (  6,    1,  999)



 OUTPUT CONTROL FOR STRESS PERIOD    1   TIME STEP   54
    PRINT BUDGET
    SAVE HEAD FOR ALL LAYERS
 SOLVING FOR ZETA FOR LAYER     6 ZONE     2

     492 UPPER PART EQS.       497 LOWER PART EQS.    BAND WIDTH + 1 =    5
 STRESS PERIOD=  1 TIMESTEP= 54 LAYER=  6 ZONE=  2 ACTIVE CELLS=  989 NUMBER OF EQUATIONS=     989
 UBUDSV SAVING "      ZETASRF  1" ON UNIT 55 AT TIME STEP 54, STRESS PERIOD    1


                      VOLUMETRIC SWI ZONE BUDGET FOR ENTIRE MODEL
                     AT END OF TIME STEP   54 IN STRESS PERIOD   1
                                      ZONE     1
  -----------------------------------------------------------------------------------

        CUMULATIVE VOLUMES      L**3       RATES FOR THIS TIME STEP      L**3/T
        ------------------                 ------------------------

              IN:                                      IN:
              ---                                      ---
             BOUNDARIES =       1.0953E-08            BOUNDARIES =       1.6974E-07
          CONSTANT HEAD =       9.9752E-03         CONSTANT HEAD =           0.1548
            ZONE CHANGE =       7.9850E-04           ZONE CHANGE =       9.4502E-03
       ZONE CHG TIP/TOE =       1.6583E-05      ZONE CHG TIP/TOE =       5.9591E-06
            ZONE MIXING =           0.0000           ZONE MIXING =           0.0000

               TOTAL IN =       1.0790E-02              TOTAL IN =           0.1643

             OUT:                                     OUT:
             ----                                     ----
             BOUNDARIES =       1.0773E-02            BOUNDARIES =           0.1642
          CONSTANT HEAD =           0.0000         CONSTANT HEAD =           0.0000
            ZONE CHANGE =       1.6772E-05           ZONE CHANGE =       1.2616E-04
       ZONE CHG TIP/TOE =       1.3894E-07      ZONE CHG TIP/TOE =       2.7406E-06
            ZONE MIXING =           0.0000           ZONE MIXING =           0.0000

              TOTAL OUT =       1.0790E-02             TOTAL OUT =           0.1643

               IN - OUT =       3.1013E-07              IN - OUT =      -1.9670E-05

    PERCENT DISCREPANCY =           0.00     PERCENT DISCREPANCY =          -0.01



                      VOLUMETRIC SWI ZONE BUDGET FOR ENTIRE MODEL
                     AT END OF TIME STEP   54 IN STRESS PERIOD   1
                                      ZONE     2
  -----------------------------------------------------------------------------------

        CUMULATIVE VOLUMES      L**3       RATES FOR THIS TIME STEP      L**3/T
        ------------------                 ------------------------

              IN:                                      IN:
              ---                                      ---
             BOUNDARIES =       4.2590E-14            BOUNDARIES =       6.0398E-13
          CONSTANT HEAD =       7.3065E-04         CONSTANT HEAD =       9.3269E-03
            ZONE CHANGE =       1.5604E-05           ZONE CHANGE =       1.2155E-04
       ZONE CHG TIP/TOE =       1.3894E-07      ZONE CHG TIP/TOE =       2.7406E-06
            ZONE MIXING =           0.0000           ZONE MIXING =           0.0000

               TOTAL IN =       7.4639E-04              TOTAL IN =       9.4512E-03

             OUT:                                     OUT:
             ----                                     ----
             BOUNDARIES =       4.2379E-14            BOUNDARIES =       6.7173E-13
          CONSTANT HEAD =           0.0000         CONSTANT HEAD =           0.0000
            ZONE CHANGE =       7.3127E-04           ZONE CHANGE =       9.4299E-03
       ZONE CHG TIP/TOE =       1.5415E-05      ZONE CHG TIP/TOE =       1.3547E-06
            ZONE MIXING =           0.0000           ZONE MIXING =           0.0000

              TOTAL OUT =       7.4669E-04             TOTAL OUT =       9.4313E-03

               IN - OUT =      -2.9127E-07              IN - OUT =       1.9900E-05

    PERCENT DISCREPANCY =          -0.04     PERCENT DISCREPANCY =           0.21


 HEAD WILL BE SAVED ON UNIT   51 AT END OF TIME STEP   54, STRESS PERIOD    1
1
  VOLUMETRIC BUDGET FOR ENTIRE MODEL AT END OF TIME STEP   54, STRESS PERIOD   1
  ------------------------------------------------------------------------------

     CUMULATIVE VOLUMES      L**3       RATES FOR THIS TIME STEP      L**3/T
     ------------------                 ------------------------

           IN:                                      IN:
           ---                                      ---
             STORAGE =       6.7209E-05               STORAGE =       1.9941E-05
       CONSTANT HEAD =       1.0706E-02         CONSTANT HEAD =           0.1641
               WELLS =           0.0000                 WELLS =           0.0000
          SWIADDTOCH =           0.0000            SWIADDTOCH =           0.0000

            TOTAL IN =       1.0773E-02              TOTAL IN =           0.1642

          OUT:                                     OUT:
          ----                                     ----
             STORAGE =       2.5981E-10               STORAGE =       4.9709E-10
       CONSTANT HEAD =           0.0000         CONSTANT HEAD =           0.0000
               WELLS =       1.0773E-02                 WELLS =           0.1642
          SWIADDTOCH =       1.4720E-10            SWIADDTOCH =           0.0000

           TOTAL OUT =       1.0773E-02             TOTAL OUT =           0.1642

            IN - OUT =      -9.3132E-09              IN - OUT =      -7.4506E-08

 PERCENT DISCREPANCY =          -0.00     PERCENT DISCREPANCY =          -0.00






         TIME SUMMARY AT END OF TIME STEP   54 IN STRESS PERIOD    1
                    SECONDS     MINUTES      HOURS       DAYS        YEARS
                    -----------------------------------------------------------
   TIME STEP LENGTH  105.00      1.7500     2.91667E-02 1.21528E-03 3.32726E-06
 STRESS PERIOD TIME  5670.0      94.500      1.5750     6.56251E-02 1.79672E-04
         TOTAL TIME  5670.0      94.500      1.5750     6.56251E-02 1.79672E-04
1

 SOLVING FOR HEAD 
     2 EXTERNAL ITERATIONS FOR TIME STEP  55 IN STRESS PERIOD    1

 MAXIMUM HEAD CHANGE FOR EACH ITERATION:

     HEAD CHANGE  LAY,ROW,COL      HEAD CHANGE  LAY,ROW,COL  
 ------------------------------------------------------------
     2.360E-05 (  7,    1, 1000)  -2.377E-07 (  6,    1,  999)



 OUTPUT CONTROL FOR STRESS PERIOD    1   TIME STEP   55
    PRINT BUDGET
    SAVE HEAD FOR ALL LAYERS
 SOLVING FOR ZETA FOR LAYER     6 ZONE     2

     498 UPPER PART EQS.       496 LOWER PART EQS.    BAND WIDTH + 1 =    4
 STRESS PERIOD=  1 TIMESTEP= 55 LAYER=  6 ZONE=  2 ACTIVE CELLS=  994 NUMBER OF EQUATIONS=     994
 UBUDSV SAVING "      ZETASRF  1" ON UNIT 55 AT TIME STEP 55, STRESS PERIOD    1


                      VOLUMETRIC SWI ZONE BUDGET FOR ENTIRE MODEL
                     AT END OF TIME STEP   55 IN STRESS PERIOD   1
                                      ZONE     1
  -----------------------------------------------------------------------------------

        CUMULATIVE VOLUMES      L**3       RATES FOR THIS TIME STEP      L**3/T
        ------------------                 ------------------------

              IN:                                      IN:
              ---                                      ---
             BOUNDARIES =       1.1152E-08            BOUNDARIES =       1.6369E-07
          CONSTANT HEAD =       1.0163E-02         CONSTANT HEAD =           0.1549
            ZONE CHANGE =       8.1004E-04           ZONE CHANGE =       9.4965E-03
       ZONE CHG TIP/TOE =       1.6602E-05      ZONE CHG TIP/TOE =       1.5901E-05
            ZONE MIXING =           0.0000           ZONE MIXING =           0.0000

               TOTAL IN =       1.0990E-02              TOTAL IN =           0.1644

             OUT:                                     OUT:
             ----                                     ----
             BOUNDARIES =       1.0973E-02            BOUNDARIES =           0.1642
          CONSTANT HEAD =           0.0000         CONSTANT HEAD =           0.0000
            ZONE CHANGE =       1.7052E-05           ZONE CHANGE =       2.3035E-04
       ZONE CHG TIP/TOE =       1.4001E-07      ZONE CHG TIP/TOE =       8.7697E-07
            ZONE MIXING =           0.0000           ZONE MIXING =           0.0000

              TOTAL OUT =       1.0990E-02             TOTAL OUT =           0.1644

               IN - OUT =       3.0734E-07              IN - OUT =      -1.9968E-06

    PERCENT DISCREPANCY =           0.00     PERCENT DISCREPANCY =          -0.00



                      VOLUMETRIC SWI ZONE BUDGET FOR ENTIRE MODEL
                     AT END OF TIME STEP   55 IN STRESS PERIOD   1
                                      ZONE     2
  -----------------------------------------------------------------------------------

        CUMULATIVE VOLUMES      L**3       RATES FOR THIS TIME STEP      L**3/T
        ------------------                 ------------------------

              IN:                                      IN:
              ---                                      ---
             BOUNDARIES =       4.3346E-14            BOUNDARIES =       6.2207E-13
          CONSTANT HEAD =       7.4191E-04         CONSTANT HEAD =       9.2633E-03
            ZONE CHANGE =       1.5868E-05           ZONE CHANGE =       2.1669E-04
       ZONE CHG TIP/TOE =       1.4001E-07      ZONE CHG TIP/TOE =       8.7697E-07
            ZONE MIXING =           0.0000           ZONE MIXING =           0.0000

               TOTAL IN =       7.5792E-04              TOTAL IN =       9.4809E-03

             OUT:                                     OUT:
             ----                                     ----
             BOUNDARIES =       4.3192E-14            BOUNDARIES =       6.6917E-13
          CONSTANT HEAD =           0.0000         CONSTANT HEAD =           0.0000
            ZONE CHANGE =       7.4279E-04           ZONE CHANGE =       9.4764E-03
       ZONE CHG TIP/TOE =       1.5418E-05      ZONE CHG TIP/TOE =       2.2407E-06
            ZONE MIXING =           0.0000           ZONE MIXING =           0.0000

              TOTAL OUT =       7.5821E-04             TOTAL OUT =       9.4787E-03

               IN - OUT =      -2.8854E-07              IN - OUT =       2.2464E-06

    PERCENT DISCREPANCY =          -0.04     PERCENT DISCREPANCY =           0.02


 HEAD WILL BE SAVED ON UNIT   51 AT END OF TIME STEP   55, STRESS PERIOD    1
1
  VOLUMETRIC BUDGET FOR ENTIRE MODEL AT END OF TIME STEP   55, STRESS PERIOD   1
  ------------------------------------------------------------------------------

     CUMULATIVE VOLUMES      L**3       RATES FOR THIS TIME STEP      L**3/T
     ------------------                 ------------------------

           IN:                                      IN:
           ---                                      ---
             STORAGE =       6.7233E-05               STORAGE =       1.9771E-05
       CONSTANT HEAD =       1.0905E-02         CONSTANT HEAD =           0.1641
               WELLS =           0.0000                 WELLS =           0.0000
          SWIADDTOCH =           0.0000            SWIADDTOCH =           0.0000

            TOTAL IN =       1.0973E-02              TOTAL IN =           0.1642

          OUT:                                     OUT:
          ----                                     ----
             STORAGE =       2.6042E-10               STORAGE =       4.9558E-10
       CONSTANT HEAD =           0.0000         CONSTANT HEAD =           0.0000
               WELLS =       1.0973E-02                 WELLS =           0.1642
          SWIADDTOCH =       1.7982E-10            SWIADDTOCH =       2.6840E-08

           TOTAL OUT =       1.0973E-02             TOTAL OUT =           0.1642

            IN - OUT =      -9.3132E-09              IN - OUT =      -4.4703E-08

 PERCENT DISCREPANCY =          -0.00     PERCENT DISCREPANCY =          -0.00






         TIME SUMMARY AT END OF TIME STEP   55 IN STRESS PERIOD    1
                    SECONDS     MINUTES      HOURS       DAYS        YEARS
                    -----------------------------------------------------------
   TIME STEP LENGTH  105.00      1.7500     2.91667E-02 1.21528E-03 3.32726E-06
 STRESS PERIOD TIME  5775.0      96.250      1.6042     6.68404E-02 1.82999E-04
         TOTAL TIME  5775.0      96.250      1.6042     6.68404E-02 1.82999E-04
1

 SOLVING FOR HEAD 
     2 EXTERNAL ITERATIONS FOR TIME STEP  56 IN STRESS PERIOD    1

 MAXIMUM HEAD CHANGE FOR EACH ITERATION:

     HEAD CHANGE  LAY,ROW,COL      HEAD CHANGE  LAY,ROW,COL  
 ------------------------------------------------------------
     2.321E-05 (  7,    1, 1000)  -2.405E-07 (  6,    1, 1000)



 OUTPUT CONTROL FOR STRESS PERIOD    1   TIME STEP   56
    PRINT BUDGET
    SAVE HEAD FOR ALL LAYERS
 SOLVING FOR ZETA FOR LAYER     6 ZONE     2

     496 UPPER PART EQS.       495 LOWER PART EQS.    BAND WIDTH + 1 =    4
 STRESS PERIOD=  1 TIMESTEP= 56 LAYER=  6 ZONE=  2 ACTIVE CELLS=  991 NUMBER OF EQUATIONS=     991
 UBUDSV SAVING "      ZETASRF  1" ON UNIT 55 AT TIME STEP 56, STRESS PERIOD    1


                      VOLUMETRIC SWI ZONE BUDGET FOR ENTIRE MODEL
                     AT END OF TIME STEP   56 IN STRESS PERIOD   1
                                      ZONE     1
  -----------------------------------------------------------------------------------

        CUMULATIVE VOLUMES      L**3       RATES FOR THIS TIME STEP      L**3/T
        ------------------                 ------------------------

              IN:                                      IN:
              ---                                      ---
             BOUNDARIES =       1.1348E-08            BOUNDARIES =       1.6167E-07
          CONSTANT HEAD =       1.0352E-02         CONSTANT HEAD =           0.1549
            ZONE CHANGE =       8.2174E-04           ZONE CHANGE =       9.6291E-03
       ZONE CHG TIP/TOE =       1.6633E-05      ZONE CHG TIP/TOE =       2.4861E-05
            ZONE MIXING =           0.0000           ZONE MIXING =           0.0000

               TOTAL IN =       1.1190E-02              TOTAL IN =           0.1646

             OUT:                                     OUT:
             ----                                     ----
             BOUNDARIES =       1.1172E-02            BOUNDARIES =           0.1642
          CONSTANT HEAD =           0.0000         CONSTANT HEAD =           0.0000
            ZONE CHANGE =       1.7564E-05           ZONE CHANGE =       4.2124E-04
       ZONE CHG TIP/TOE =       1.4074E-07      ZONE CHG TIP/TOE =       5.9797E-07
            ZONE MIXING =           0.0000           ZONE MIXING =           0.0000

              TOTAL OUT =       1.1190E-02             TOTAL OUT =           0.1646

               IN - OUT =       3.2037E-07              IN - OUT =       1.1742E-05

    PERCENT DISCREPANCY =           0.00     PERCENT DISCREPANCY =           0.01



                      VOLUMETRIC SWI ZONE BUDGET FOR ENTIRE MODEL
                     AT END OF TIME STEP   56 IN STRESS PERIOD   1
                                      ZONE     2
  -----------------------------------------------------------------------------------

        CUMULATIVE VOLUMES      L**3       RATES FOR THIS TIME STEP      L**3/T
        ------------------                 ------------------------

              IN:                                      IN:
              ---                                      ---
             BOUNDARIES =       4.4143E-14            BOUNDARIES =       6.5572E-13
          CONSTANT HEAD =       7.5309E-04         CONSTANT HEAD =       9.2005E-03
            ZONE CHANGE =       1.6356E-05           ZONE CHANGE =       4.0214E-04
       ZONE CHG TIP/TOE =       1.4074E-07      ZONE CHG TIP/TOE =       5.9797E-07
            ZONE MIXING =           0.0000           ZONE MIXING =           0.0000

               TOTAL IN =       7.6959E-04              TOTAL IN =       9.6032E-03

             OUT:                                     OUT:
             ----                                     ----
             BOUNDARIES =       4.3971E-14            BOUNDARIES =       6.4069E-13
          CONSTANT HEAD =           0.0000         CONSTANT HEAD =           0.0000
            ZONE CHANGE =       7.5447E-04           ZONE CHANGE =       9.6090E-03
       ZONE CHG TIP/TOE =       1.5425E-05      ZONE CHG TIP/TOE =       5.7597E-06
            ZONE MIXING =           0.0000           ZONE MIXING =           0.0000

              TOTAL OUT =       7.6989E-04             TOTAL OUT =       9.6147E-03

               IN - OUT =      -3.0251E-07              IN - OUT =      -1.1501E-05

    PERCENT DISCREPANCY =          -0.04     PERCENT DISCREPANCY =          -0.12


 HEAD WILL BE SAVED ON UNIT   51 AT END OF TIME STEP   56, STRESS PERIOD    1
1
  VOLUMETRIC BUDGET FOR ENTIRE MODEL AT END OF TIME STEP   56, STRESS PERIOD   1
  ------------------------------------------------------------------------------

     CUMULATIVE VOLUMES      L**3       RATES FOR THIS TIME STEP      L**3/T
     ------------------                 ------------------------

           IN:                                      IN:
           ---                                      ---
             STORAGE =       6.7257E-05               STORAGE =       1.9836E-05
       CONSTANT HEAD =       1.1105E-02         CONSTANT HEAD =           0.1641
               WELLS =           0.0000                 WELLS =           0.0000
          SWIADDTOCH =           0.0000            SWIADDTOCH =           0.0000

            TOTAL IN =       1.1172E-02              TOTAL IN =           0.1642

          OUT:                                     OUT:
          ----                                     ----
             STORAGE =       2.6101E-10               STORAGE =       4.8823E-10
       CONSTANT HEAD =           0.0000         CONSTANT HEAD =           0.0000
               WELLS =       1.1172E-02                 WELLS =           0.1642
          SWIADDTOCH =       1.7982E-10            SWIADDTOCH =           0.0000

           TOTAL OUT =       1.1172E-02             TOTAL OUT =           0.1642

            IN - OUT =      -9.3132E-09              IN - OUT =      -5.9605E-08

 PERCENT DISCREPANCY =          -0.00     PERCENT DISCREPANCY =          -0.00






         TIME SUMMARY AT END OF TIME STEP   56 IN STRESS PERIOD    1
                    SECONDS     MINUTES      HOURS       DAYS        YEARS
                    -----------------------------------------------------------
   TIME STEP LENGTH  105.00      1.7500     2.91667E-02 1.21528E-03 3.32726E-06
 STRESS PERIOD TIME  5880.0      98.000      1.6333     6.80556E-02 1.86326E-04
         TOTAL TIME  5880.0      98.000      1.6333     6.80556E-02 1.86326E-04
1

 SOLVING FOR HEAD 
     2 EXTERNAL ITERATIONS FOR TIME STEP  57 IN STRESS PERIOD    1

 MAXIMUM HEAD CHANGE FOR EACH ITERATION:

     HEAD CHANGE  LAY,ROW,COL      HEAD CHANGE  LAY,ROW,COL  
 ------------------------------------------------------------
     2.299E-05 (  7,    1, 1000)  -2.390E-07 (  6,    1,  999)



 OUTPUT CONTROL FOR STRESS PERIOD    1   TIME STEP   57
    PRINT BUDGET
    SAVE HEAD FOR ALL LAYERS
 SOLVING FOR ZETA FOR LAYER     6 ZONE     2

     495 UPPER PART EQS.       496 LOWER PART EQS.    BAND WIDTH + 1 =    3
 STRESS PERIOD=  1 TIMESTEP= 57 LAYER=  6 ZONE=  2 ACTIVE CELLS=  991 NUMBER OF EQUATIONS=     991
 UBUDSV SAVING "      ZETASRF  1" ON UNIT 55 AT TIME STEP 57, STRESS PERIOD    1


                      VOLUMETRIC SWI ZONE BUDGET FOR ENTIRE MODEL
                     AT END OF TIME STEP   57 IN STRESS PERIOD   1
                                      ZONE     1
  -----------------------------------------------------------------------------------

        CUMULATIVE VOLUMES      L**3       RATES FOR THIS TIME STEP      L**3/T
        ------------------                 ------------------------

              IN:                                      IN:
              ---                                      ---
             BOUNDARIES =       1.1535E-08            BOUNDARIES =       1.5414E-07
          CONSTANT HEAD =       1.0540E-02         CONSTANT HEAD =           0.1550
            ZONE CHANGE =       8.3447E-04           ZONE CHANGE =       1.0469E-02
       ZONE CHG TIP/TOE =       1.6677E-05      ZONE CHG TIP/TOE =       3.6698E-05
            ZONE MIXING =           0.0000           ZONE MIXING =           0.0000

               TOTAL IN =       1.1391E-02              TOTAL IN =           0.1655

             OUT:                                     OUT:
             ----                                     ----
             BOUNDARIES =       1.1372E-02            BOUNDARIES =           0.1642
          CONSTANT HEAD =           0.0000         CONSTANT HEAD =           0.0000
            ZONE CHANGE =       1.9175E-05           ZONE CHANGE =       1.3255E-03
       ZONE CHG TIP/TOE =       1.4169E-07      ZONE CHG TIP/TOE =       7.8618E-07
            ZONE MIXING =           0.0000           ZONE MIXING =           0.0000

              TOTAL OUT =       1.1391E-02             TOTAL OUT =           0.1655

               IN - OUT =       3.4738E-07              IN - OUT =       2.1487E-05

    PERCENT DISCREPANCY =           0.00     PERCENT DISCREPANCY =           0.01



                      VOLUMETRIC SWI ZONE BUDGET FOR ENTIRE MODEL
                     AT END OF TIME STEP   57 IN STRESS PERIOD   1
                                      ZONE     2
  -----------------------------------------------------------------------------------

        CUMULATIVE VOLUMES      L**3       RATES FOR THIS TIME STEP      L**3/T
        ------------------                 ------------------------

              IN:                                      IN:
              ---                                      ---
             BOUNDARIES =       4.4921E-14            BOUNDARIES =       6.4061E-13
          CONSTANT HEAD =       7.6420E-04         CONSTANT HEAD =       9.1380E-03
            ZONE CHANGE =       1.7932E-05           ZONE CHANGE =       1.2969E-03
       ZONE CHG TIP/TOE =       1.4169E-07      ZONE CHG TIP/TOE =       7.8618E-07
            ZONE MIXING =           0.0000           ZONE MIXING =           0.0000

               TOTAL IN =       7.8227E-04              TOTAL IN =       1.0436E-02

             OUT:                                     OUT:
             ----                                     ----
             BOUNDARIES =       4.4786E-14            BOUNDARIES =       6.7108E-13
          CONSTANT HEAD =           0.0000         CONSTANT HEAD =           0.0000
            ZONE CHANGE =       7.6716E-04           ZONE CHANGE =       1.0449E-02
       ZONE CHG TIP/TOE =       1.5434E-05      ZONE CHG TIP/TOE =       8.0742E-06
            ZONE MIXING =           0.0000           ZONE MIXING =           0.0000

              TOTAL OUT =       7.8260E-04             TOTAL OUT =       1.0457E-02

               IN - OUT =      -3.2829E-07              IN - OUT =      -2.1251E-05

    PERCENT DISCREPANCY =          -0.04     PERCENT DISCREPANCY =          -0.20


 HEAD WILL BE SAVED ON UNIT   51 AT END OF TIME STEP   57, STRESS PERIOD    1
1
  VOLUMETRIC BUDGET FOR ENTIRE MODEL AT END OF TIME STEP   57, STRESS PERIOD   1
  ------------------------------------------------------------------------------

     CUMULATIVE VOLUMES      L**3       RATES FOR THIS TIME STEP      L**3/T
     ------------------                 ------------------------

           IN:                                      IN:
           ---                                      ---
             STORAGE =       6.7281E-05               STORAGE =       1.9784E-05
       CONSTANT HEAD =       1.1304E-02         CONSTANT HEAD =           0.1641
               WELLS =           0.0000                 WELLS =           0.0000
          SWIADDTOCH =           0.0000            SWIADDTOCH =           0.0000

            TOTAL IN =       1.1372E-02              TOTAL IN =           0.1642

          OUT:                                     OUT:
          ----                                     ----
             STORAGE =       2.6160E-10               STORAGE =       4.8755E-10
       CONSTANT HEAD =           0.0000         CONSTANT HEAD =           0.0000
               WELLS =       1.1372E-02                 WELLS =           0.1642
          SWIADDTOCH =       1.7982E-10            SWIADDTOCH =           0.0000

           TOTAL OUT =       1.1372E-02             TOTAL OUT =           0.1642

            IN - OUT =      -9.3132E-09              IN - OUT =      -4.4703E-08

 PERCENT DISCREPANCY =          -0.00     PERCENT DISCREPANCY =          -0.00






         TIME SUMMARY AT END OF TIME STEP   57 IN STRESS PERIOD    1
                    SECONDS     MINUTES      HOURS       DAYS        YEARS
                    -----------------------------------------------------------
   TIME STEP LENGTH  105.00      1.7500     2.91667E-02 1.21528E-03 3.32726E-06
 STRESS PERIOD TIME  5985.0      99.750      1.6625     6.92709E-02 1.89653E-04
         TOTAL TIME  5985.0      99.750      1.6625     6.92709E-02 1.89653E-04
1

 SOLVING FOR HEAD 
     2 EXTERNAL ITERATIONS FOR TIME STEP  58 IN STRESS PERIOD    1

 MAXIMUM HEAD CHANGE FOR EACH ITERATION:

     HEAD CHANGE  LAY,ROW,COL      HEAD CHANGE  LAY,ROW,COL  
 ------------------------------------------------------------
     2.278E-05 (  7,    1, 1000)  -2.401E-07 (  6,    1, 1000)



 OUTPUT CONTROL FOR STRESS PERIOD    1   TIME STEP   58
    PRINT BUDGET
    SAVE HEAD FOR ALL LAYERS
 SOLVING FOR ZETA FOR LAYER     6 ZONE     2

     494 UPPER PART EQS.       495 LOWER PART EQS.    BAND WIDTH + 1 =    3
 STRESS PERIOD=  1 TIMESTEP= 58 LAYER=  6 ZONE=  2 ACTIVE CELLS=  989 NUMBER OF EQUATIONS=     989
 UBUDSV SAVING "      ZETASRF  1" ON UNIT 55 AT TIME STEP 58, STRESS PERIOD    1


                      VOLUMETRIC SWI ZONE BUDGET FOR ENTIRE MODEL
                     AT END OF TIME STEP   58 IN STRESS PERIOD   1
                                      ZONE     1
  -----------------------------------------------------------------------------------

        CUMULATIVE VOLUMES      L**3       RATES FOR THIS TIME STEP      L**3/T
        ------------------                 ------------------------

              IN:                                      IN:
              ---                                      ---
             BOUNDARIES =       1.1748E-08            BOUNDARIES =       1.7524E-07
          CONSTANT HEAD =       1.0728E-02         CONSTANT HEAD =           0.1551
            ZONE CHANGE =       8.4752E-04           ZONE CHANGE =       1.0739E-02
       ZONE CHG TIP/TOE =       1.6733E-05      ZONE CHG TIP/TOE =       4.5604E-05
            ZONE MIXING =           0.0000           ZONE MIXING =           0.0000

               TOTAL IN =       1.1593E-02              TOTAL IN =           0.1658

             OUT:                                     OUT:
             ----                                     ----
             BOUNDARIES =       1.1571E-02            BOUNDARIES =           0.1642
          CONSTANT HEAD =           0.0000         CONSTANT HEAD =           0.0000
            ZONE CHANGE =       2.1193E-05           ZONE CHANGE =       1.6606E-03
       ZONE CHG TIP/TOE =       1.4279E-07      ZONE CHG TIP/TOE =       9.0193E-07
            ZONE MIXING =           0.0000           ZONE MIXING =           0.0000

              TOTAL OUT =       1.1592E-02             TOTAL OUT =           0.1658

               IN - OUT =       3.7998E-07              IN - OUT =       2.5168E-05

    PERCENT DISCREPANCY =           0.00     PERCENT DISCREPANCY =           0.02



                      VOLUMETRIC SWI ZONE BUDGET FOR ENTIRE MODEL
                     AT END OF TIME STEP   58 IN STRESS PERIOD   1
                                      ZONE     2
  -----------------------------------------------------------------------------------

        CUMULATIVE VOLUMES      L**3       RATES FOR THIS TIME STEP      L**3/T
        ------------------                 ------------------------

              IN:                                      IN:
              ---                                      ---
             BOUNDARIES =       4.5733E-14            BOUNDARIES =       6.6766E-13
          CONSTANT HEAD =       7.7523E-04         CONSTANT HEAD =       9.0784E-03
            ZONE CHANGE =       1.9912E-05           ZONE CHANGE =       1.6290E-03
       ZONE CHG TIP/TOE =       1.4279E-07      ZONE CHG TIP/TOE =       9.0193E-07
            ZONE MIXING =           0.0000           ZONE MIXING =           0.0000

               TOTAL IN =       7.9528E-04              TOTAL IN =       1.0708E-02

             OUT:                                     OUT:
             ----                                     ----
             BOUNDARIES =       4.5580E-14            BOUNDARIES =       6.5325E-13
          CONSTANT HEAD =           0.0000         CONSTANT HEAD =           0.0000
            ZONE CHANGE =       7.8019E-04           ZONE CHANGE =       1.0719E-02
       ZONE CHG TIP/TOE =       1.5451E-05      ZONE CHG TIP/TOE =       1.3919E-05
            ZONE MIXING =           0.0000           ZONE MIXING =           0.0000

              TOTAL OUT =       7.9564E-04             TOTAL OUT =       1.0733E-02

               IN - OUT =      -3.5856E-07              IN - OUT =      -2.4941E-05

    PERCENT DISCREPANCY =          -0.05     PERCENT DISCREPANCY =          -0.23


 HEAD WILL BE SAVED ON UNIT   51 AT END OF TIME STEP   58, STRESS PERIOD    1
1
  VOLUMETRIC BUDGET FOR ENTIRE MODEL AT END OF TIME STEP   58, STRESS PERIOD   1
  ------------------------------------------------------------------------------

     CUMULATIVE VOLUMES      L**3       RATES FOR THIS TIME STEP      L**3/T
     ------------------                 ------------------------

           IN:                                      IN:
           ---                                      ---
             STORAGE =       6.7305E-05               STORAGE =       1.9777E-05
       CONSTANT HEAD =       1.1504E-02         CONSTANT HEAD =           0.1641
               WELLS =           0.0000                 WELLS =           0.0000
          SWIADDTOCH =           0.0000            SWIADDTOCH =           0.0000

            TOTAL IN =       1.1571E-02              TOTAL IN =           0.1642

          OUT:                                     OUT:
          ----                                     ----
             STORAGE =       2.6221E-10               STORAGE =       4.9701E-10
       CONSTANT HEAD =           0.0000         CONSTANT HEAD =           0.0000
               WELLS =       1.1571E-02                 WELLS =           0.1642
          SWIADDTOCH =       1.7982E-10            SWIADDTOCH =           0.0000

           TOTAL OUT =       1.1571E-02             TOTAL OUT =           0.1642

            IN - OUT =      -1.0245E-08              IN - OUT =      -8.9407E-08

 PERCENT DISCREPANCY =          -0.00     PERCENT DISCREPANCY =          -0.00






         TIME SUMMARY AT END OF TIME STEP   58 IN STRESS PERIOD    1
                    SECONDS     MINUTES      HOURS       DAYS        YEARS
                    -----------------------------------------------------------
   TIME STEP LENGTH  105.00      1.7500     2.91667E-02 1.21528E-03 3.32726E-06
 STRESS PERIOD TIME  6090.0      101.50      1.6917     7.04862E-02 1.92981E-04
         TOTAL TIME  6090.0      101.50      1.6917     7.04862E-02 1.92981E-04
1

 SOLVING FOR HEAD 
     2 EXTERNAL ITERATIONS FOR TIME STEP  59 IN STRESS PERIOD    1

 MAXIMUM HEAD CHANGE FOR EACH ITERATION:

     HEAD CHANGE  LAY,ROW,COL      HEAD CHANGE  LAY,ROW,COL  
 ------------------------------------------------------------
     2.261E-05 (  7,    1, 1000)  -2.407E-07 (  6,    1, 1000)



 OUTPUT CONTROL FOR STRESS PERIOD    1   TIME STEP   59
    PRINT BUDGET
    SAVE HEAD FOR ALL LAYERS
 SOLVING FOR ZETA FOR LAYER     6 ZONE     2

     494 UPPER PART EQS.       493 LOWER PART EQS.    BAND WIDTH + 1 =    3
 STRESS PERIOD=  1 TIMESTEP= 59 LAYER=  6 ZONE=  2 ACTIVE CELLS=  987 NUMBER OF EQUATIONS=     987
 UBUDSV SAVING "      ZETASRF  1" ON UNIT 55 AT TIME STEP 59, STRESS PERIOD    1


                      VOLUMETRIC SWI ZONE BUDGET FOR ENTIRE MODEL
                     AT END OF TIME STEP   59 IN STRESS PERIOD   1
                                      ZONE     1
  -----------------------------------------------------------------------------------

        CUMULATIVE VOLUMES      L**3       RATES FOR THIS TIME STEP      L**3/T
        ------------------                 ------------------------

              IN:                                      IN:
              ---                                      ---
             BOUNDARIES =       1.1931E-08            BOUNDARIES =       1.5000E-07
          CONSTANT HEAD =       1.0917E-02         CONSTANT HEAD =           0.1551
            ZONE CHANGE =       8.6014E-04           ZONE CHANGE =       1.0389E-02
       ZONE CHG TIP/TOE =       1.6796E-05      ZONE CHG TIP/TOE =       5.2270E-05
            ZONE MIXING =           0.0000           ZONE MIXING =           0.0000

               TOTAL IN =       1.1794E-02              TOTAL IN =           0.1656

             OUT:                                     OUT:
             ----                                     ----
             BOUNDARIES =       1.1771E-02            BOUNDARIES =           0.1642
          CONSTANT HEAD =           0.0000         CONSTANT HEAD =           0.0000
            ZONE CHANGE =       2.2857E-05           ZONE CHANGE =       1.3690E-03
       ZONE CHG TIP/TOE =       1.4299E-07      ZONE CHG TIP/TOE =       1.6326E-07
            ZONE MIXING =           0.0000           ZONE MIXING =           0.0000

              TOTAL OUT =       1.1794E-02             TOTAL OUT =           0.1655

               IN - OUT =       4.1351E-07              IN - OUT =       2.9281E-05

    PERCENT DISCREPANCY =           0.00     PERCENT DISCREPANCY =           0.02



                      VOLUMETRIC SWI ZONE BUDGET FOR ENTIRE MODEL
                     AT END OF TIME STEP   59 IN STRESS PERIOD   1
                                      ZONE     2
  -----------------------------------------------------------------------------------

        CUMULATIVE VOLUMES      L**3       RATES FOR THIS TIME STEP      L**3/T
        ------------------                 ------------------------

              IN:                                      IN:
              ---                                      ---
             BOUNDARIES =       4.6582E-14            BOUNDARIES =       6.9901E-13
          CONSTANT HEAD =       7.8619E-04         CONSTANT HEAD =       9.0225E-03
            ZONE CHANGE =       2.1532E-05           ZONE CHANGE =       1.3330E-03
       ZONE CHG TIP/TOE =       1.4299E-07      ZONE CHG TIP/TOE =       1.6326E-07
            ZONE MIXING =           0.0000           ZONE MIXING =           0.0000

               TOTAL IN =       8.0787E-04              TOTAL IN =       1.0356E-02

             OUT:                                     OUT:
             ----                                     ----
             BOUNDARIES =       4.6330E-14            BOUNDARIES =       6.1703E-13
          CONSTANT HEAD =           0.0000         CONSTANT HEAD =           0.0000
            ZONE CHANGE =       7.9279E-04           ZONE CHANGE =       1.0369E-02
       ZONE CHG TIP/TOE =       1.5471E-05      ZONE CHG TIP/TOE =       1.6323E-05
            ZONE MIXING =           0.0000           ZONE MIXING =           0.0000

              TOTAL OUT =       8.0826E-04             TOTAL OUT =       1.0385E-02

               IN - OUT =      -3.9395E-07              IN - OUT =      -2.9079E-05

    PERCENT DISCREPANCY =          -0.05     PERCENT DISCREPANCY =          -0.28


 HEAD WILL BE SAVED ON UNIT   51 AT END OF TIME STEP   59, STRESS PERIOD    1
1
  VOLUMETRIC BUDGET FOR ENTIRE MODEL AT END OF TIME STEP   59, STRESS PERIOD   1
  ------------------------------------------------------------------------------

     CUMULATIVE VOLUMES      L**3       RATES FOR THIS TIME STEP      L**3/T
     ------------------                 ------------------------

           IN:                                      IN:
           ---                                      ---
             STORAGE =       6.7329E-05               STORAGE =       1.9924E-05
       CONSTANT HEAD =       1.1703E-02         CONSTANT HEAD =           0.1641
               WELLS =           0.0000                 WELLS =           0.0000
          SWIADDTOCH =           0.0000            SWIADDTOCH =           0.0000

            TOTAL IN =       1.1771E-02              TOTAL IN =           0.1642

          OUT:                                     OUT:
          ----                                     ----
             STORAGE =       2.6621E-10               STORAGE =       3.2940E-09
       CONSTANT HEAD =           0.0000         CONSTANT HEAD =           0.0000
               WELLS =       1.1771E-02                 WELLS =           0.1642
          SWIADDTOCH =       1.7982E-10            SWIADDTOCH =           0.0000

           TOTAL OUT =       1.1771E-02             TOTAL OUT =           0.1642

            IN - OUT =      -1.0245E-08              IN - OUT =      -4.4703E-08

 PERCENT DISCREPANCY =          -0.00     PERCENT DISCREPANCY =          -0.00






         TIME SUMMARY AT END OF TIME STEP   59 IN STRESS PERIOD    1
                    SECONDS     MINUTES      HOURS       DAYS        YEARS
                    -----------------------------------------------------------
   TIME STEP LENGTH  105.00      1.7500     2.91667E-02 1.21528E-03 3.32726E-06
 STRESS PERIOD TIME  6195.0      103.25      1.7208     7.17015E-02 1.96308E-04
         TOTAL TIME  6195.0      103.25      1.7208     7.17015E-02 1.96308E-04
1

 SOLVING FOR HEAD 
     2 EXTERNAL ITERATIONS FOR TIME STEP  60 IN STRESS PERIOD    1

 MAXIMUM HEAD CHANGE FOR EACH ITERATION:

     HEAD CHANGE  LAY,ROW,COL      HEAD CHANGE  LAY,ROW,COL  
 ------------------------------------------------------------
     2.237E-05 (  7,    1, 1000)  -2.412E-07 (  6,    1,  999)



 OUTPUT CONTROL FOR STRESS PERIOD    1   TIME STEP   60
    PRINT BUDGET
    SAVE HEAD FOR ALL LAYERS
 SOLVING FOR ZETA FOR LAYER     6 ZONE     2

     493 UPPER PART EQS.       494 LOWER PART EQS.    BAND WIDTH + 1 =    2
 STRESS PERIOD=  1 TIMESTEP= 60 LAYER=  6 ZONE=  2 ACTIVE CELLS=  987 NUMBER OF EQUATIONS=     987
 UBUDSV SAVING "      ZETASRF  1" ON UNIT 55 AT TIME STEP 60, STRESS PERIOD    1


                      VOLUMETRIC SWI ZONE BUDGET FOR ENTIRE MODEL
                     AT END OF TIME STEP   60 IN STRESS PERIOD   1
                                      ZONE     1
  -----------------------------------------------------------------------------------

        CUMULATIVE VOLUMES      L**3       RATES FOR THIS TIME STEP      L**3/T
        ------------------                 ------------------------

              IN:                                      IN:
              ---                                      ---
             BOUNDARIES =       1.2129E-08            BOUNDARIES =       1.6306E-07
          CONSTANT HEAD =       1.1106E-02         CONSTANT HEAD =           0.1552
            ZONE CHANGE =       8.7236E-04           ZONE CHANGE =       1.0051E-02
       ZONE CHG TIP/TOE =       1.6855E-05      ZONE CHG TIP/TOE =       4.8768E-05
            ZONE MIXING =           0.0000           ZONE MIXING =           0.0000

               TOTAL IN =       1.1995E-02              TOTAL IN =           0.1653

             OUT:                                     OUT:
             ----                                     ----
             BOUNDARIES =       1.1970E-02            BOUNDARIES =           0.1642
          CONSTANT HEAD =           0.0000         CONSTANT HEAD =           0.0000
            ZONE CHANGE =       2.4176E-05           ZONE CHANGE =       1.0849E-03
       ZONE CHG TIP/TOE =       1.4305E-07      ZONE CHG TIP/TOE =       5.4555E-08
            ZONE MIXING =           0.0000           ZONE MIXING =           0.0000

              TOTAL OUT =       1.1994E-02             TOTAL OUT =           0.1652

               IN - OUT =       4.4610E-07              IN - OUT =       2.6748E-05

    PERCENT DISCREPANCY =           0.00     PERCENT DISCREPANCY =           0.02



                      VOLUMETRIC SWI ZONE BUDGET FOR ENTIRE MODEL
                     AT END OF TIME STEP   60 IN STRESS PERIOD   1
                                      ZONE     2
  -----------------------------------------------------------------------------------

        CUMULATIVE VOLUMES      L**3       RATES FOR THIS TIME STEP      L**3/T
        ------------------                 ------------------------

              IN:                                      IN:
              ---                                      ---
             BOUNDARIES =       4.7321E-14            BOUNDARIES =       6.0794E-13
          CONSTANT HEAD =       7.9709E-04         CONSTANT HEAD =       8.9681E-03
            ZONE CHANGE =       2.2810E-05           ZONE CHANGE =       1.0511E-03
       ZONE CHG TIP/TOE =       1.4305E-07      ZONE CHG TIP/TOE =       5.4555E-08
            ZONE MIXING =           0.0000           ZONE MIXING =           0.0000

               TOTAL IN =       8.2004E-04              TOTAL IN =       1.0019E-02

             OUT:                                     OUT:
             ----                                     ----
             BOUNDARIES =       4.7139E-14            BOUNDARIES =       6.6594E-13
          CONSTANT HEAD =           0.0000         CONSTANT HEAD =           0.0000
            ZONE CHANGE =       8.0498E-04           ZONE CHANGE =       1.0031E-02
       ZONE CHG TIP/TOE =       1.5489E-05      ZONE CHG TIP/TOE =       1.4969E-05
            ZONE MIXING =           0.0000           ZONE MIXING =           0.0000

              TOTAL OUT =       8.2047E-04             TOTAL OUT =       1.0046E-02

               IN - OUT =      -4.2620E-07              IN - OUT =      -2.6524E-05

    PERCENT DISCREPANCY =          -0.05     PERCENT DISCREPANCY =          -0.26


 HEAD WILL BE SAVED ON UNIT   51 AT END OF TIME STEP   60, STRESS PERIOD    1
1
  VOLUMETRIC BUDGET FOR ENTIRE MODEL AT END OF TIME STEP   60, STRESS PERIOD   1
  ------------------------------------------------------------------------------

     CUMULATIVE VOLUMES      L**3       RATES FOR THIS TIME STEP      L**3/T
     ------------------                 ------------------------

           IN:                                      IN:
           ---                                      ---
             STORAGE =       6.7354E-05               STORAGE =       1.9935E-05
       CONSTANT HEAD =       1.1903E-02         CONSTANT HEAD =           0.1641
               WELLS =           0.0000                 WELLS =           0.0000
          SWIADDTOCH =           0.0000            SWIADDTOCH =           0.0000

            TOTAL IN =       1.1970E-02              TOTAL IN =           0.1642

          OUT:                                     OUT:
          ----                                     ----
             STORAGE =       2.6907E-10               STORAGE =       2.3544E-09
       CONSTANT HEAD =           0.0000         CONSTANT HEAD =           0.0000
               WELLS =       1.1970E-02                 WELLS =           0.1642
          SWIADDTOCH =       1.7982E-10            SWIADDTOCH =           0.0000

           TOTAL OUT =       1.1970E-02             TOTAL OUT =           0.1642

            IN - OUT =      -1.0245E-08              IN - OUT =      -5.9605E-08

 PERCENT DISCREPANCY =          -0.00     PERCENT DISCREPANCY =          -0.00






         TIME SUMMARY AT END OF TIME STEP   60 IN STRESS PERIOD    1
                    SECONDS     MINUTES      HOURS       DAYS        YEARS
                    -----------------------------------------------------------
   TIME STEP LENGTH  105.00      1.7500     2.91667E-02 1.21528E-03 3.32726E-06
 STRESS PERIOD TIME  6300.0      105.00      1.7500     7.29168E-02 1.99635E-04
         TOTAL TIME  6300.0      105.00      1.7500     7.29168E-02 1.99635E-04
1

 SOLVING FOR HEAD 
     2 EXTERNAL ITERATIONS FOR TIME STEP  61 IN STRESS PERIOD    1

 MAXIMUM HEAD CHANGE FOR EACH ITERATION:

     HEAD CHANGE  LAY,ROW,COL      HEAD CHANGE  LAY,ROW,COL  
 ------------------------------------------------------------
     2.212E-05 (  7,    1, 1000)  -2.415E-07 (  6,    1,  999)



 OUTPUT CONTROL FOR STRESS PERIOD    1   TIME STEP   61
    PRINT BUDGET
    SAVE HEAD FOR ALL LAYERS
 SOLVING FOR ZETA FOR LAYER     6 ZONE     2

     493 UPPER PART EQS.       494 LOWER PART EQS.    BAND WIDTH + 1 =    3
 STRESS PERIOD=  1 TIMESTEP= 61 LAYER=  6 ZONE=  2 ACTIVE CELLS=  987 NUMBER OF EQUATIONS=     987
 UBUDSV SAVING "      ZETASRF  1" ON UNIT 55 AT TIME STEP 61, STRESS PERIOD    1


                      VOLUMETRIC SWI ZONE BUDGET FOR ENTIRE MODEL
                     AT END OF TIME STEP   61 IN STRESS PERIOD   1
                                      ZONE     1
  -----------------------------------------------------------------------------------

        CUMULATIVE VOLUMES      L**3       RATES FOR THIS TIME STEP      L**3/T
        ------------------                 ------------------------

              IN:                                      IN:
              ---                                      ---
             BOUNDARIES =       1.2332E-08            BOUNDARIES =       1.6675E-07
          CONSTANT HEAD =       1.1294E-02         CONSTANT HEAD =           0.1552
            ZONE CHANGE =       8.8428E-04           ZONE CHANGE =       9.8132E-03
       ZONE CHG TIP/TOE =       1.6918E-05      ZONE CHG TIP/TOE =       5.1727E-05
            ZONE MIXING =           0.0000           ZONE MIXING =           0.0000

               TOTAL IN =       1.2195E-02              TOTAL IN =           0.1651

             OUT:                                     OUT:
             ----                                     ----
             BOUNDARIES =       1.2170E-02            BOUNDARIES =           0.1642
          CONSTANT HEAD =           0.0000         CONSTANT HEAD =           0.0000
            ZONE CHANGE =       2.5280E-05           ZONE CHANGE =       9.0902E-04
       ZONE CHG TIP/TOE =       1.4306E-07      ZONE CHG TIP/TOE =       4.7789E-09
            ZONE MIXING =           0.0000           ZONE MIXING =           0.0000

              TOTAL OUT =       1.2195E-02             TOTAL OUT =           0.1651

               IN - OUT =       4.7311E-07              IN - OUT =       2.1726E-05

    PERCENT DISCREPANCY =           0.00     PERCENT DISCREPANCY =           0.01



                      VOLUMETRIC SWI ZONE BUDGET FOR ENTIRE MODEL
                     AT END OF TIME STEP   61 IN STRESS PERIOD   1
                                      ZONE     2
  -----------------------------------------------------------------------------------

        CUMULATIVE VOLUMES      L**3       RATES FOR THIS TIME STEP      L**3/T
        ------------------                 ------------------------

              IN:                                      IN:
              ---                                      ---
             BOUNDARIES =       4.8074E-14            BOUNDARIES =       6.1928E-13
          CONSTANT HEAD =       8.0793E-04         CONSTANT HEAD =       8.9141E-03
            ZONE CHANGE =       2.3878E-05           ZONE CHANGE =       8.7912E-04
       ZONE CHG TIP/TOE =       1.4306E-07      ZONE CHG TIP/TOE =       4.7789E-09
            ZONE MIXING =           0.0000           ZONE MIXING =           0.0000

               TOTAL IN =       8.3195E-04              TOTAL IN =       9.7933E-03

             OUT:                                     OUT:
             ----                                     ----
             BOUNDARIES =       4.7978E-14            BOUNDARIES =       6.8976E-13
          CONSTANT HEAD =           0.0000         CONSTANT HEAD =           0.0000
            ZONE CHANGE =       8.1688E-04           ZONE CHANGE =       9.7929E-03
       ZONE CHG TIP/TOE =       1.5516E-05      ZONE CHG TIP/TOE =       2.1832E-05
            ZONE MIXING =           0.0000           ZONE MIXING =           0.0000

              TOTAL OUT =       8.3240E-04             TOTAL OUT =       9.8148E-03

               IN - OUT =      -4.5227E-07              IN - OUT =      -2.1494E-05

    PERCENT DISCREPANCY =          -0.05     PERCENT DISCREPANCY =          -0.22


 HEAD WILL BE SAVED ON UNIT   51 AT END OF TIME STEP   61, STRESS PERIOD    1
1
  VOLUMETRIC BUDGET FOR ENTIRE MODEL AT END OF TIME STEP   61, STRESS PERIOD   1
  ------------------------------------------------------------------------------

     CUMULATIVE VOLUMES      L**3       RATES FOR THIS TIME STEP      L**3/T
     ------------------                 ------------------------

           IN:                                      IN:
           ---                                      ---
             STORAGE =       6.7378E-05               STORAGE =       1.9964E-05
       CONSTANT HEAD =       1.2102E-02         CONSTANT HEAD =           0.1641
               WELLS =           0.0000                 WELLS =           0.0000
          SWIADDTOCH =           0.0000            SWIADDTOCH =           0.0000

            TOTAL IN =       1.2170E-02              TOTAL IN =           0.1642

          OUT:                                     OUT:
          ----                                     ----
             STORAGE =       2.7079E-10               STORAGE =       1.4153E-09
       CONSTANT HEAD =           0.0000         CONSTANT HEAD =           0.0000
               WELLS =       1.2170E-02                 WELLS =           0.1642
          SWIADDTOCH =       2.1571E-10            SWIADDTOCH =       2.9534E-08

           TOTAL OUT =       1.2170E-02             TOTAL OUT =           0.1642

            IN - OUT =      -9.3132E-09              IN - OUT =      -7.4506E-08

 PERCENT DISCREPANCY =          -0.00     PERCENT DISCREPANCY =          -0.00






         TIME SUMMARY AT END OF TIME STEP   61 IN STRESS PERIOD    1
                    SECONDS     MINUTES      HOURS       DAYS        YEARS
                    -----------------------------------------------------------
   TIME STEP LENGTH  105.00      1.7500     2.91667E-02 1.21528E-03 3.32726E-06
 STRESS PERIOD TIME  6405.0      106.75      1.7792     7.41320E-02 2.02962E-04
         TOTAL TIME  6405.0      106.75      1.7792     7.41320E-02 2.02962E-04
1

 SOLVING FOR HEAD 
     2 EXTERNAL ITERATIONS FOR TIME STEP  62 IN STRESS PERIOD    1

 MAXIMUM HEAD CHANGE FOR EACH ITERATION:

     HEAD CHANGE  LAY,ROW,COL      HEAD CHANGE  LAY,ROW,COL  
 ------------------------------------------------------------
     2.186E-05 (  7,    1, 1000)  -2.415E-07 (  6,    1, 1000)



 OUTPUT CONTROL FOR STRESS PERIOD    1   TIME STEP   62
    PRINT BUDGET
    SAVE HEAD FOR ALL LAYERS
 SOLVING FOR ZETA FOR LAYER     6 ZONE     2

     493 UPPER PART EQS.       495 LOWER PART EQS.    BAND WIDTH + 1 =    3
 STRESS PERIOD=  1 TIMESTEP= 62 LAYER=  6 ZONE=  2 ACTIVE CELLS=  988 NUMBER OF EQUATIONS=     988
 UBUDSV SAVING "      ZETASRF  1" ON UNIT 55 AT TIME STEP 62, STRESS PERIOD    1


                      VOLUMETRIC SWI ZONE BUDGET FOR ENTIRE MODEL
                     AT END OF TIME STEP   62 IN STRESS PERIOD   1
                                      ZONE     1
  -----------------------------------------------------------------------------------

        CUMULATIVE VOLUMES      L**3       RATES FOR THIS TIME STEP      L**3/T
        ------------------                 ------------------------

              IN:                                      IN:
              ---                                      ---
             BOUNDARIES =       1.2533E-08            BOUNDARIES =       1.6595E-07
          CONSTANT HEAD =       1.1483E-02         CONSTANT HEAD =           0.1553
            ZONE CHANGE =       8.9602E-04           ZONE CHANGE =       9.6618E-03
       ZONE CHG TIP/TOE =       1.6979E-05      ZONE CHG TIP/TOE =       4.9540E-05
            ZONE MIXING =           0.0000           ZONE MIXING =           0.0000

               TOTAL IN =       1.2396E-02              TOTAL IN =           0.1650

             OUT:                                     OUT:
             ----                                     ----
             BOUNDARIES =       1.2369E-02            BOUNDARIES =           0.1642
          CONSTANT HEAD =           0.0000         CONSTANT HEAD =           0.0000
            ZONE CHANGE =       2.6263E-05           ZONE CHANGE =       8.0844E-04
       ZONE CHG TIP/TOE =       1.4306E-07      ZONE CHG TIP/TOE =       4.7776E-09
            ZONE MIXING =           0.0000           ZONE MIXING =           0.0000

              TOTAL OUT =       1.2395E-02             TOTAL OUT =           0.1650

               IN - OUT =       5.0105E-07              IN - OUT =       2.2471E-05

    PERCENT DISCREPANCY =           0.00     PERCENT DISCREPANCY =           0.01



                      VOLUMETRIC SWI ZONE BUDGET FOR ENTIRE MODEL
                     AT END OF TIME STEP   62 IN STRESS PERIOD   1
                                      ZONE     2
  -----------------------------------------------------------------------------------

        CUMULATIVE VOLUMES      L**3       RATES FOR THIS TIME STEP      L**3/T
        ------------------                 ------------------------

              IN:                                      IN:
              ---                                      ---
             BOUNDARIES =       4.8860E-14            BOUNDARIES =       6.4740E-13
          CONSTANT HEAD =       8.1869E-04         CONSTANT HEAD =       8.8604E-03
            ZONE CHANGE =       2.4823E-05           ZONE CHANGE =       7.7754E-04
       ZONE CHG TIP/TOE =       1.4306E-07      ZONE CHG TIP/TOE =       4.7776E-09
            ZONE MIXING =           0.0000           ZONE MIXING =           0.0000

               TOTAL IN =       8.4366E-04              TOTAL IN =       9.6379E-03

             OUT:                                     OUT:
             ----                                     ----
             BOUNDARIES =       4.8726E-14            BOUNDARIES =       6.1580E-13
          CONSTANT HEAD =           0.0000         CONSTANT HEAD =           0.0000
            ZONE CHANGE =       8.2860E-04           ZONE CHANGE =       9.6415E-03
       ZONE CHG TIP/TOE =       1.5539E-05      ZONE CHG TIP/TOE =       1.8635E-05
            ZONE MIXING =           0.0000           ZONE MIXING =           0.0000

              TOTAL OUT =       8.4414E-04             TOTAL OUT =       9.6601E-03

               IN - OUT =      -4.7922E-07              IN - OUT =      -2.2226E-05

    PERCENT DISCREPANCY =          -0.06     PERCENT DISCREPANCY =          -0.23


 HEAD WILL BE SAVED ON UNIT   51 AT END OF TIME STEP   62, STRESS PERIOD    1
1
  VOLUMETRIC BUDGET FOR ENTIRE MODEL AT END OF TIME STEP   62, STRESS PERIOD   1
  ------------------------------------------------------------------------------

     CUMULATIVE VOLUMES      L**3       RATES FOR THIS TIME STEP      L**3/T
     ------------------                 ------------------------

           IN:                                      IN:
           ---                                      ---
             STORAGE =       6.7402E-05               STORAGE =       1.9982E-05
       CONSTANT HEAD =       1.2302E-02         CONSTANT HEAD =           0.1641
               WELLS =           0.0000                 WELLS =           0.0000
          SWIADDTOCH =           0.0000            SWIADDTOCH =           0.0000

            TOTAL IN =       1.2369E-02              TOTAL IN =           0.1642

          OUT:                                     OUT:
          ----                                     ----
             STORAGE =       2.7477E-10               STORAGE =       3.2712E-09
       CONSTANT HEAD =           0.0000         CONSTANT HEAD =           0.0000
               WELLS =       1.2369E-02                 WELLS =           0.1642
          SWIADDTOCH =       2.1571E-10            SWIADDTOCH =           0.0000

           TOTAL OUT =       1.2369E-02             TOTAL OUT =           0.1642

            IN - OUT =      -9.3132E-09              IN - OUT =      -5.9605E-08

 PERCENT DISCREPANCY =          -0.00     PERCENT DISCREPANCY =          -0.00






         TIME SUMMARY AT END OF TIME STEP   62 IN STRESS PERIOD    1
                    SECONDS     MINUTES      HOURS       DAYS        YEARS
                    -----------------------------------------------------------
   TIME STEP LENGTH  105.00      1.7500     2.91667E-02 1.21528E-03 3.32726E-06
 STRESS PERIOD TIME  6510.0      108.50      1.8083     7.53473E-02 2.06290E-04
         TOTAL TIME  6510.0      108.50      1.8083     7.53473E-02 2.06290E-04
1

 SOLVING FOR HEAD 
     2 EXTERNAL ITERATIONS FOR TIME STEP  63 IN STRESS PERIOD    1

 MAXIMUM HEAD CHANGE FOR EACH ITERATION:

     HEAD CHANGE  LAY,ROW,COL      HEAD CHANGE  LAY,ROW,COL  
 ------------------------------------------------------------
     2.161E-05 (  7,    1, 1000)  -2.416E-07 (  6,    1, 1000)



 OUTPUT CONTROL FOR STRESS PERIOD    1   TIME STEP   63
    PRINT BUDGET
    SAVE HEAD FOR ALL LAYERS
 SOLVING FOR ZETA FOR LAYER     6 ZONE     2

     493 UPPER PART EQS.       494 LOWER PART EQS.    BAND WIDTH + 1 =    2
 STRESS PERIOD=  1 TIMESTEP= 63 LAYER=  6 ZONE=  2 ACTIVE CELLS=  987 NUMBER OF EQUATIONS=     987
 UBUDSV SAVING "      ZETASRF  1" ON UNIT 55 AT TIME STEP 63, STRESS PERIOD    1


                      VOLUMETRIC SWI ZONE BUDGET FOR ENTIRE MODEL
                     AT END OF TIME STEP   63 IN STRESS PERIOD   1
                                      ZONE     1
  -----------------------------------------------------------------------------------

        CUMULATIVE VOLUMES      L**3       RATES FOR THIS TIME STEP      L**3/T
        ------------------                 ------------------------

              IN:                                      IN:
              ---                                      ---
             BOUNDARIES =       1.2744E-08            BOUNDARIES =       1.7306E-07
          CONSTANT HEAD =       1.1672E-02         CONSTANT HEAD =           0.1553
            ZONE CHANGE =       9.0761E-04           ZONE CHANGE =       9.5375E-03
       ZONE CHG TIP/TOE =       1.7039E-05      ZONE CHG TIP/TOE =       4.9516E-05
            ZONE MIXING =           0.0000           ZONE MIXING =           0.0000

               TOTAL IN =       1.2596E-02              TOTAL IN =           0.1649

             OUT:                                     OUT:
             ----                                     ----
             BOUNDARIES =       1.2569E-02            BOUNDARIES =           0.1642
          CONSTANT HEAD =           0.0000         CONSTANT HEAD =           0.0000
            ZONE CHANGE =       2.7160E-05           ZONE CHANGE =       7.3826E-04
       ZONE CHG TIP/TOE =       1.4307E-07      ZONE CHG TIP/TOE =       4.7762E-09
            ZONE MIXING =           0.0000           ZONE MIXING =           0.0000

              TOTAL OUT =       1.2596E-02             TOTAL OUT =           0.1649

               IN - OUT =       5.2713E-07              IN - OUT =       2.2292E-05

    PERCENT DISCREPANCY =           0.00     PERCENT DISCREPANCY =           0.01



                      VOLUMETRIC SWI ZONE BUDGET FOR ENTIRE MODEL
                     AT END OF TIME STEP   63 IN STRESS PERIOD   1
                                      ZONE     2
  -----------------------------------------------------------------------------------

        CUMULATIVE VOLUMES      L**3       RATES FOR THIS TIME STEP      L**3/T
        ------------------                 ------------------------

              IN:                                      IN:
              ---                                      ---
             BOUNDARIES =       4.9615E-14            BOUNDARIES =       6.2081E-13
          CONSTANT HEAD =       8.2940E-04         CONSTANT HEAD =       8.8064E-03
            ZONE CHANGE =       2.5681E-05           ZONE CHANGE =       7.0651E-04
       ZONE CHG TIP/TOE =       1.4307E-07      ZONE CHG TIP/TOE =       4.7762E-09
            ZONE MIXING =           0.0000           ZONE MIXING =           0.0000

               TOTAL IN =       8.5522E-04              TOTAL IN =       9.5130E-03

             OUT:                                     OUT:
             ----                                     ----
             BOUNDARIES =       4.9519E-14            BOUNDARIES =       6.5222E-13
          CONSTANT HEAD =           0.0000         CONSTANT HEAD =           0.0000
            ZONE CHANGE =       8.4017E-04           ZONE CHANGE =       9.5172E-03
       ZONE CHG TIP/TOE =       1.5560E-05      ZONE CHG TIP/TOE =       1.7764E-05
            ZONE MIXING =           0.0000           ZONE MIXING =           0.0000

              TOTAL OUT =       8.5573E-04             TOTAL OUT =       9.5350E-03

               IN - OUT =      -5.0600E-07              IN - OUT =      -2.2059E-05

    PERCENT DISCREPANCY =          -0.06     PERCENT DISCREPANCY =          -0.23


 HEAD WILL BE SAVED ON UNIT   51 AT END OF TIME STEP   63, STRESS PERIOD    1
1
  VOLUMETRIC BUDGET FOR ENTIRE MODEL AT END OF TIME STEP   63, STRESS PERIOD   1
  ------------------------------------------------------------------------------

     CUMULATIVE VOLUMES      L**3       RATES FOR THIS TIME STEP      L**3/T
     ------------------                 ------------------------

           IN:                                      IN:
           ---                                      ---
             STORAGE =       6.7427E-05               STORAGE =       1.9983E-05
       CONSTANT HEAD =       1.2501E-02         CONSTANT HEAD =           0.1641
               WELLS =           0.0000                 WELLS =           0.0000
          SWIADDTOCH =           0.0000            SWIADDTOCH =           0.0000

            TOTAL IN =       1.2569E-02              TOTAL IN =           0.1642

          OUT:                                     OUT:
          ----                                     ----
             STORAGE =       2.7874E-10               STORAGE =       3.2652E-09
       CONSTANT HEAD =           0.0000         CONSTANT HEAD =           0.0000
               WELLS =       1.2569E-02                 WELLS =           0.1642
          SWIADDTOCH =       2.1571E-10            SWIADDTOCH =           0.0000

           TOTAL OUT =       1.2569E-02             TOTAL OUT =           0.1642

            IN - OUT =      -9.3132E-09              IN - OUT =      -7.4506E-08

 PERCENT DISCREPANCY =          -0.00     PERCENT DISCREPANCY =          -0.00






         TIME SUMMARY AT END OF TIME STEP   63 IN STRESS PERIOD    1
                    SECONDS     MINUTES      HOURS       DAYS        YEARS
                    -----------------------------------------------------------
   TIME STEP LENGTH  105.00      1.7500     2.91667E-02 1.21528E-03 3.32726E-06
 STRESS PERIOD TIME  6615.0      110.25      1.8375     7.65626E-02 2.09617E-04
         TOTAL TIME  6615.0      110.25      1.8375     7.65626E-02 2.09617E-04
1

 SOLVING FOR HEAD 
     2 EXTERNAL ITERATIONS FOR TIME STEP  64 IN STRESS PERIOD    1

 MAXIMUM HEAD CHANGE FOR EACH ITERATION:

     HEAD CHANGE  LAY,ROW,COL      HEAD CHANGE  LAY,ROW,COL  
 ------------------------------------------------------------
     2.136E-05 (  7,    1, 1000)  -2.416E-07 (  6,    1,  999)



 OUTPUT CONTROL FOR STRESS PERIOD    1   TIME STEP   64
    PRINT BUDGET
    SAVE HEAD FOR ALL LAYERS
 SOLVING FOR ZETA FOR LAYER     6 ZONE     2

     493 UPPER PART EQS.       493 LOWER PART EQS.    BAND WIDTH + 1 =    3
 STRESS PERIOD=  1 TIMESTEP= 64 LAYER=  6 ZONE=  2 ACTIVE CELLS=  986 NUMBER OF EQUATIONS=     986
 UBUDSV SAVING "      ZETASRF  1" ON UNIT 55 AT TIME STEP 64, STRESS PERIOD    1


                      VOLUMETRIC SWI ZONE BUDGET FOR ENTIRE MODEL
                     AT END OF TIME STEP   64 IN STRESS PERIOD   1
                                      ZONE     1
  -----------------------------------------------------------------------------------

        CUMULATIVE VOLUMES      L**3       RATES FOR THIS TIME STEP      L**3/T
        ------------------                 ------------------------

              IN:                                      IN:
              ---                                      ---
             BOUNDARIES =       1.2947E-08            BOUNDARIES =       1.6752E-07
          CONSTANT HEAD =       1.1861E-02         CONSTANT HEAD =           0.1554
            ZONE CHANGE =       9.1903E-04           ZONE CHANGE =       9.3964E-03
       ZONE CHG TIP/TOE =       1.7096E-05      ZONE CHG TIP/TOE =       4.7099E-05
            ZONE MIXING =           0.0000           ZONE MIXING =           0.0000

               TOTAL IN =       1.2797E-02              TOTAL IN =           0.1648

             OUT:                                     OUT:
             ----                                     ----
             BOUNDARIES =       1.2768E-02            BOUNDARIES =           0.1642
          CONSTANT HEAD =           0.0000         CONSTANT HEAD =           0.0000
            ZONE CHANGE =       2.7957E-05           ZONE CHANGE =       6.5607E-04
       ZONE CHG TIP/TOE =       1.4452E-07      ZONE CHG TIP/TOE =       1.1953E-06
            ZONE MIXING =           0.0000           ZONE MIXING =           0.0000

              TOTAL OUT =       1.2796E-02             TOTAL OUT =           0.1648

               IN - OUT =       5.4482E-07              IN - OUT =       1.3798E-05

    PERCENT DISCREPANCY =           0.00     PERCENT DISCREPANCY =           0.01



                      VOLUMETRIC SWI ZONE BUDGET FOR ENTIRE MODEL
                     AT END OF TIME STEP   64 IN STRESS PERIOD   1
                                      ZONE     2
  -----------------------------------------------------------------------------------

        CUMULATIVE VOLUMES      L**3       RATES FOR THIS TIME STEP      L**3/T
        ------------------                 ------------------------

              IN:                                      IN:
              ---                                      ---
             BOUNDARIES =       5.0403E-14            BOUNDARIES =       6.4849E-13
          CONSTANT HEAD =       8.4003E-04         CONSTANT HEAD =       8.7524E-03
            ZONE CHANGE =       2.6448E-05           ZONE CHANGE =       6.3074E-04
       ZONE CHG TIP/TOE =       1.4452E-07      ZONE CHG TIP/TOE =       1.1953E-06
            ZONE MIXING =           0.0000           ZONE MIXING =           0.0000

               TOTAL IN =       8.6662E-04              TOTAL IN =       9.3843E-03

             OUT:                                     OUT:
             ----                                     ----
             BOUNDARIES =       5.0321E-14            BOUNDARIES =       6.6021E-13
          CONSTANT HEAD =           0.0000         CONSTANT HEAD =           0.0000
            ZONE CHANGE =       8.5156E-04           ZONE CHANGE =       9.3761E-03
       ZONE CHG TIP/TOE =       1.5587E-05      ZONE CHG TIP/TOE =       2.1767E-05
            ZONE MIXING =           0.0000           ZONE MIXING =           0.0000

              TOTAL OUT =       8.6715E-04             TOTAL OUT =       9.3979E-03

               IN - OUT =      -5.2241E-07              IN - OUT =      -1.3527E-05

    PERCENT DISCREPANCY =          -0.06     PERCENT DISCREPANCY =          -0.14


 HEAD WILL BE SAVED ON UNIT   51 AT END OF TIME STEP   64, STRESS PERIOD    1
1
  VOLUMETRIC BUDGET FOR ENTIRE MODEL AT END OF TIME STEP   64, STRESS PERIOD   1
  ------------------------------------------------------------------------------

     CUMULATIVE VOLUMES      L**3       RATES FOR THIS TIME STEP      L**3/T
     ------------------                 ------------------------

           IN:                                      IN:
           ---                                      ---
             STORAGE =       6.7451E-05               STORAGE =       1.9944E-05
       CONSTANT HEAD =       1.2701E-02         CONSTANT HEAD =           0.1641
               WELLS =           0.0000                 WELLS =           0.0000
          SWIADDTOCH =           0.0000            SWIADDTOCH =           0.0000

            TOTAL IN =       1.2768E-02              TOTAL IN =           0.1642

          OUT:                                     OUT:
          ----                                     ----
             STORAGE =       2.8270E-10               STORAGE =       3.2595E-09
       CONSTANT HEAD =           0.0000         CONSTANT HEAD =           0.0000
               WELLS =       1.2768E-02                 WELLS =           0.1642
          SWIADDTOCH =       2.1571E-10            SWIADDTOCH =           0.0000

           TOTAL OUT =       1.2768E-02             TOTAL OUT =           0.1642

            IN - OUT =      -9.3132E-09              IN - OUT =      -7.4506E-08

 PERCENT DISCREPANCY =          -0.00     PERCENT DISCREPANCY =          -0.00






         TIME SUMMARY AT END OF TIME STEP   64 IN STRESS PERIOD    1
                    SECONDS     MINUTES      HOURS       DAYS        YEARS
                    -----------------------------------------------------------
   TIME STEP LENGTH  105.00      1.7500     2.91667E-02 1.21528E-03 3.32726E-06
 STRESS PERIOD TIME  6720.0      112.00      1.8667     7.77779E-02 2.12944E-04
         TOTAL TIME  6720.0      112.00      1.8667     7.77779E-02 2.12944E-04
1

 SOLVING FOR HEAD 
     2 EXTERNAL ITERATIONS FOR TIME STEP  65 IN STRESS PERIOD    1

 MAXIMUM HEAD CHANGE FOR EACH ITERATION:

     HEAD CHANGE  LAY,ROW,COL      HEAD CHANGE  LAY,ROW,COL  
 ------------------------------------------------------------
     2.111E-05 (  7,    1, 1000)  -2.415E-07 (  6,    1,  999)



 OUTPUT CONTROL FOR STRESS PERIOD    1   TIME STEP   65
    PRINT BUDGET
    SAVE HEAD FOR ALL LAYERS
 SOLVING FOR ZETA FOR LAYER     6 ZONE     2

     493 UPPER PART EQS.       493 LOWER PART EQS.    BAND WIDTH + 1 =    2
 STRESS PERIOD=  1 TIMESTEP= 65 LAYER=  6 ZONE=  2 ACTIVE CELLS=  986 NUMBER OF EQUATIONS=     986
 UBUDSV SAVING "      ZETASRF  1" ON UNIT 55 AT TIME STEP 65, STRESS PERIOD    1


                      VOLUMETRIC SWI ZONE BUDGET FOR ENTIRE MODEL
                     AT END OF TIME STEP   65 IN STRESS PERIOD   1
                                      ZONE     1
  -----------------------------------------------------------------------------------

        CUMULATIVE VOLUMES      L**3       RATES FOR THIS TIME STEP      L**3/T
        ------------------                 ------------------------

              IN:                                      IN:
              ---                                      ---
             BOUNDARIES =       1.3138E-08            BOUNDARIES =       1.5675E-07
          CONSTANT HEAD =       1.2049E-02         CONSTANT HEAD =           0.1554
            ZONE CHANGE =       9.3034E-04           ZONE CHANGE =       9.3063E-03
       ZONE CHG TIP/TOE =       1.7148E-05      ZONE CHG TIP/TOE =       4.2536E-05
            ZONE MIXING =           0.0000           ZONE MIXING =           0.0000

               TOTAL IN =       1.2997E-02              TOTAL IN =           0.1648

             OUT:                                     OUT:
             ----                                     ----
             BOUNDARIES =       1.2968E-02            BOUNDARIES =           0.1642
          CONSTANT HEAD =           0.0000         CONSTANT HEAD =           0.0000
            ZONE CHANGE =       2.8710E-05           ZONE CHANGE =       6.1952E-04
       ZONE CHG TIP/TOE =       1.4726E-07      ZONE CHG TIP/TOE =       2.2542E-06
            ZONE MIXING =           0.0000           ZONE MIXING =           0.0000

              TOTAL OUT =       1.2996E-02             TOTAL OUT =           0.1648

               IN - OUT =       5.5507E-07              IN - OUT =       8.5980E-06

    PERCENT DISCREPANCY =           0.00     PERCENT DISCREPANCY =           0.01



                      VOLUMETRIC SWI ZONE BUDGET FOR ENTIRE MODEL
                     AT END OF TIME STEP   65 IN STRESS PERIOD   1
                                      ZONE     2
  -----------------------------------------------------------------------------------

        CUMULATIVE VOLUMES      L**3       RATES FOR THIS TIME STEP      L**3/T
        ------------------                 ------------------------

              IN:                                      IN:
              ---                                      ---
             BOUNDARIES =       5.1168E-14            BOUNDARIES =       6.2986E-13
          CONSTANT HEAD =       8.5060E-04         CONSTANT HEAD =       8.6985E-03
            ZONE CHANGE =       2.7174E-05           ZONE CHANGE =       5.9757E-04
       ZONE CHG TIP/TOE =       1.4726E-07      ZONE CHG TIP/TOE =       2.2542E-06
            ZONE MIXING =           0.0000           ZONE MIXING =           0.0000

               TOTAL IN =       8.7792E-04              TOTAL IN =       9.2983E-03

             OUT:                                     OUT:
             ----                                     ----
             BOUNDARIES =       5.1105E-14            BOUNDARIES =       6.4508E-13
          CONSTANT HEAD =           0.0000         CONSTANT HEAD =           0.0000
            ZONE CHANGE =       8.6285E-04           ZONE CHANGE =       9.2861E-03
       ZONE CHG TIP/TOE =       1.5612E-05      ZONE CHG TIP/TOE =       2.0588E-05
            ZONE MIXING =           0.0000           ZONE MIXING =           0.0000

              TOTAL OUT =       8.7846E-04             TOTAL OUT =       9.3067E-03

               IN - OUT =      -5.3254E-07              IN - OUT =      -8.3428E-06

    PERCENT DISCREPANCY =          -0.06     PERCENT DISCREPANCY =          -0.09


 HEAD WILL BE SAVED ON UNIT   51 AT END OF TIME STEP   65, STRESS PERIOD    1
1
  VOLUMETRIC BUDGET FOR ENTIRE MODEL AT END OF TIME STEP   65, STRESS PERIOD   1
  ------------------------------------------------------------------------------

     CUMULATIVE VOLUMES      L**3       RATES FOR THIS TIME STEP      L**3/T
     ------------------                 ------------------------

           IN:                                      IN:
           ---                                      ---
             STORAGE =       6.7475E-05               STORAGE =       1.9959E-05
       CONSTANT HEAD =       1.2900E-02         CONSTANT HEAD =           0.1641
               WELLS =           0.0000                 WELLS =           0.0000
          SWIADDTOCH =           0.0000            SWIADDTOCH =           0.0000

            TOTAL IN =       1.2968E-02              TOTAL IN =           0.1642

          OUT:                                     OUT:
          ----                                     ----
             STORAGE =       2.8665E-10               STORAGE =       3.2540E-09
       CONSTANT HEAD =           0.0000         CONSTANT HEAD =           0.0000
               WELLS =       1.2968E-02                 WELLS =           0.1642
          SWIADDTOCH =       2.1571E-10            SWIADDTOCH =           0.0000

           TOTAL OUT =       1.2968E-02             TOTAL OUT =           0.1642

            IN - OUT =      -9.3132E-09              IN - OUT =      -5.9605E-08

 PERCENT DISCREPANCY =          -0.00     PERCENT DISCREPANCY =          -0.00






         TIME SUMMARY AT END OF TIME STEP   65 IN STRESS PERIOD    1
                    SECONDS     MINUTES      HOURS       DAYS        YEARS
                    -----------------------------------------------------------
   TIME STEP LENGTH  105.00      1.7500     2.91667E-02 1.21528E-03 3.32726E-06
 STRESS PERIOD TIME  6825.0      113.75      1.8958     7.89932E-02 2.16271E-04
         TOTAL TIME  6825.0      113.75      1.8958     7.89932E-02 2.16271E-04
1

 SOLVING FOR HEAD 
     2 EXTERNAL ITERATIONS FOR TIME STEP  66 IN STRESS PERIOD    1

 MAXIMUM HEAD CHANGE FOR EACH ITERATION:

     HEAD CHANGE  LAY,ROW,COL      HEAD CHANGE  LAY,ROW,COL  
 ------------------------------------------------------------
     2.087E-05 (  7,    1, 1000)  -2.415E-07 (  6,    1,  999)



 OUTPUT CONTROL FOR STRESS PERIOD    1   TIME STEP   66
    PRINT BUDGET
    SAVE HEAD FOR ALL LAYERS
 SOLVING FOR ZETA FOR LAYER     6 ZONE     2

     492 UPPER PART EQS.       493 LOWER PART EQS.    BAND WIDTH + 1 =    3
 STRESS PERIOD=  1 TIMESTEP= 66 LAYER=  6 ZONE=  2 ACTIVE CELLS=  985 NUMBER OF EQUATIONS=     985
 UBUDSV SAVING "      ZETASRF  1" ON UNIT 55 AT TIME STEP 66, STRESS PERIOD    1


                      VOLUMETRIC SWI ZONE BUDGET FOR ENTIRE MODEL
                     AT END OF TIME STEP   66 IN STRESS PERIOD   1
                                      ZONE     1
  -----------------------------------------------------------------------------------

        CUMULATIVE VOLUMES      L**3       RATES FOR THIS TIME STEP      L**3/T
        ------------------                 ------------------------

              IN:                                      IN:
              ---                                      ---
             BOUNDARIES =       1.3354E-08            BOUNDARIES =       1.7808E-07
          CONSTANT HEAD =       1.2238E-02         CONSTANT HEAD =           0.1555
            ZONE CHANGE =       9.4153E-04           ZONE CHANGE =       9.2071E-03
       ZONE CHG TIP/TOE =       1.7201E-05      ZONE CHG TIP/TOE =       4.3790E-05
            ZONE MIXING =           0.0000           ZONE MIXING =           0.0000

               TOTAL IN =       1.3197E-02              TOTAL IN =           0.1647

             OUT:                                     OUT:
             ----                                     ----
             BOUNDARIES =       1.3167E-02            BOUNDARIES =           0.1642
          CONSTANT HEAD =           0.0000         CONSTANT HEAD =           0.0000
            ZONE CHANGE =       2.9414E-05           ZONE CHANGE =       5.7948E-04
       ZONE CHG TIP/TOE =       1.5104E-07      ZONE CHG TIP/TOE =       3.1046E-06
            ZONE MIXING =           0.0000           ZONE MIXING =           0.0000

              TOTAL OUT =       1.3197E-02             TOTAL OUT =           0.1647

               IN - OUT =       5.5879E-07              IN - OUT =       3.6508E-06

    PERCENT DISCREPANCY =           0.00     PERCENT DISCREPANCY =           0.00



                      VOLUMETRIC SWI ZONE BUDGET FOR ENTIRE MODEL
                     AT END OF TIME STEP   66 IN STRESS PERIOD   1
                                      ZONE     2
  -----------------------------------------------------------------------------------

        CUMULATIVE VOLUMES      L**3       RATES FOR THIS TIME STEP      L**3/T
        ------------------                 ------------------------

              IN:                                      IN:
              ---                                      ---
             BOUNDARIES =       5.1918E-14            BOUNDARIES =       6.1668E-13
          CONSTANT HEAD =       8.6111E-04         CONSTANT HEAD =       8.6447E-03
            ZONE CHANGE =       2.7855E-05           ZONE CHANGE =       5.6035E-04
       ZONE CHG TIP/TOE =       1.5104E-07      ZONE CHG TIP/TOE =       3.1046E-06
            ZONE MIXING =           0.0000           ZONE MIXING =           0.0000

               TOTAL IN =       8.8911E-04              TOTAL IN =       9.2081E-03

             OUT:                                     OUT:
             ----                                     ----
             BOUNDARIES =       5.1941E-14            BOUNDARIES =       6.8779E-13
          CONSTANT HEAD =           0.0000         CONSTANT HEAD =           0.0000
            ZONE CHANGE =       8.7401E-04           ZONE CHANGE =       9.1868E-03
       ZONE CHG TIP/TOE =       1.5642E-05      ZONE CHG TIP/TOE =       2.4660E-05
            ZONE MIXING =           0.0000           ZONE MIXING =           0.0000

              TOTAL OUT =       8.8965E-04             TOTAL OUT =       9.2115E-03

               IN - OUT =      -5.3667E-07              IN - OUT =      -3.3788E-06

    PERCENT DISCREPANCY =          -0.06     PERCENT DISCREPANCY =          -0.04


 HEAD WILL BE SAVED ON UNIT   51 AT END OF TIME STEP   66, STRESS PERIOD    1
1
  VOLUMETRIC BUDGET FOR ENTIRE MODEL AT END OF TIME STEP   66, STRESS PERIOD   1
  ------------------------------------------------------------------------------

     CUMULATIVE VOLUMES      L**3       RATES FOR THIS TIME STEP      L**3/T
     ------------------                 ------------------------

           IN:                                      IN:
           ---                                      ---
             STORAGE =       6.7499E-05               STORAGE =       1.9913E-05
       CONSTANT HEAD =       1.3100E-02         CONSTANT HEAD =           0.1641
               WELLS =           0.0000                 WELLS =           0.0000
          SWIADDTOCH =           0.0000            SWIADDTOCH =           0.0000

            TOTAL IN =       1.3167E-02              TOTAL IN =           0.1642

          OUT:                                     OUT:
          ----                                     ----
             STORAGE =       2.8947E-10               STORAGE =       2.3172E-09
       CONSTANT HEAD =           0.0000         CONSTANT HEAD =           0.0000
               WELLS =       1.3167E-02                 WELLS =           0.1642
          SWIADDTOCH =       2.1571E-10            SWIADDTOCH =           0.0000

           TOTAL OUT =       1.3167E-02             TOTAL OUT =           0.1642

            IN - OUT =      -9.3132E-09              IN - OUT =      -7.4506E-08

 PERCENT DISCREPANCY =          -0.00     PERCENT DISCREPANCY =          -0.00






         TIME SUMMARY AT END OF TIME STEP   66 IN STRESS PERIOD    1
                    SECONDS     MINUTES      HOURS       DAYS        YEARS
                    -----------------------------------------------------------
   TIME STEP LENGTH  105.00      1.7500     2.91667E-02 1.21528E-03 3.32726E-06
 STRESS PERIOD TIME  6930.0      115.50      1.9250     8.02084E-02 2.19599E-04
         TOTAL TIME  6930.0      115.50      1.9250     8.02084E-02 2.19599E-04
1

 SOLVING FOR HEAD 
     2 EXTERNAL ITERATIONS FOR TIME STEP  67 IN STRESS PERIOD    1

 MAXIMUM HEAD CHANGE FOR EACH ITERATION:

     HEAD CHANGE  LAY,ROW,COL      HEAD CHANGE  LAY,ROW,COL  
 ------------------------------------------------------------
     2.063E-05 (  7,    1, 1000)  -2.413E-07 (  6,    1, 1000)



 OUTPUT CONTROL FOR STRESS PERIOD    1   TIME STEP   67
    PRINT BUDGET
    SAVE HEAD FOR ALL LAYERS
 SOLVING FOR ZETA FOR LAYER     6 ZONE     2

     494 UPPER PART EQS.       495 LOWER PART EQS.    BAND WIDTH + 1 =    4
 STRESS PERIOD=  1 TIMESTEP= 67 LAYER=  6 ZONE=  2 ACTIVE CELLS=  989 NUMBER OF EQUATIONS=     989
 UBUDSV SAVING "      ZETASRF  1" ON UNIT 55 AT TIME STEP 67, STRESS PERIOD    1


                      VOLUMETRIC SWI ZONE BUDGET FOR ENTIRE MODEL
                     AT END OF TIME STEP   67 IN STRESS PERIOD   1
                                      ZONE     1
  -----------------------------------------------------------------------------------

        CUMULATIVE VOLUMES      L**3       RATES FOR THIS TIME STEP      L**3/T
        ------------------                 ------------------------

              IN:                                      IN:
              ---                                      ---
             BOUNDARIES =       1.3544E-08            BOUNDARIES =       1.5609E-07
          CONSTANT HEAD =       1.2427E-02         CONSTANT HEAD =           0.1555
            ZONE CHANGE =       9.5264E-04           ZONE CHANGE =       9.1400E-03
       ZONE CHG TIP/TOE =       1.7243E-05      ZONE CHG TIP/TOE =       3.4896E-05
            ZONE MIXING =           0.0000           ZONE MIXING =           0.0000

               TOTAL IN =       1.3397E-02              TOTAL IN =           0.1647

             OUT:                                     OUT:
             ----                                     ----
             BOUNDARIES =       1.3367E-02            BOUNDARIES =           0.1642
          CONSTANT HEAD =           0.0000         CONSTANT HEAD =           0.0000
            ZONE CHANGE =       3.0094E-05           ZONE CHANGE =       5.5904E-04
       ZONE CHG TIP/TOE =       1.5635E-07      ZONE CHG TIP/TOE =       4.3774E-06
            ZONE MIXING =           0.0000           ZONE MIXING =           0.0000

              TOTAL OUT =       1.3397E-02             TOTAL OUT =           0.1647

               IN - OUT =       5.6066E-07              IN - OUT =       6.4075E-07

    PERCENT DISCREPANCY =           0.00     PERCENT DISCREPANCY =           0.00



                      VOLUMETRIC SWI ZONE BUDGET FOR ENTIRE MODEL
                     AT END OF TIME STEP   67 IN STRESS PERIOD   1
                                      ZONE     2
  -----------------------------------------------------------------------------------

        CUMULATIVE VOLUMES      L**3       RATES FOR THIS TIME STEP      L**3/T
        ------------------                 ------------------------

              IN:                                      IN:
              ---                                      ---
             BOUNDARIES =       5.2675E-14            BOUNDARIES =       6.2335E-13
          CONSTANT HEAD =       8.7155E-04         CONSTANT HEAD =       8.5909E-03
            ZONE CHANGE =       2.8512E-05           ZONE CHANGE =       5.4078E-04
       ZONE CHG TIP/TOE =       1.5635E-07      ZONE CHG TIP/TOE =       4.3774E-06
            ZONE MIXING =           0.0000           ZONE MIXING =           0.0000

               TOTAL IN =       9.0022E-04              TOTAL IN =       9.1360E-03

             OUT:                                     OUT:
             ----                                     ----
             BOUNDARIES =       5.2711E-14            BOUNDARIES =       6.3344E-13
          CONSTANT HEAD =           0.0000         CONSTANT HEAD =           0.0000
            ZONE CHANGE =       8.8509E-04           ZONE CHANGE =       9.1198E-03
       ZONE CHG TIP/TOE =       1.5662E-05      ZONE CHG TIP/TOE =       1.6635E-05
            ZONE MIXING =           0.0000           ZONE MIXING =           0.0000

              TOTAL OUT =       9.0075E-04             TOTAL OUT =       9.1364E-03

               IN - OUT =      -5.3726E-07              IN - OUT =      -4.0885E-07

    PERCENT DISCREPANCY =          -0.06     PERCENT DISCREPANCY =          -0.00


 HEAD WILL BE SAVED ON UNIT   51 AT END OF TIME STEP   67, STRESS PERIOD    1
1
  VOLUMETRIC BUDGET FOR ENTIRE MODEL AT END OF TIME STEP   67, STRESS PERIOD   1
  ------------------------------------------------------------------------------

     CUMULATIVE VOLUMES      L**3       RATES FOR THIS TIME STEP      L**3/T
     ------------------                 ------------------------

           IN:                                      IN:
           ---                                      ---
             STORAGE =       6.7523E-05               STORAGE =       1.9931E-05
       CONSTANT HEAD =       1.3299E-02         CONSTANT HEAD =           0.1641
               WELLS =           0.0000                 WELLS =           0.0000
          SWIADDTOCH =           0.0000            SWIADDTOCH =           0.0000

            TOTAL IN =       1.3367E-02              TOTAL IN =           0.1642

          OUT:                                     OUT:
          ----                                     ----
             STORAGE =       2.9228E-10               STORAGE =       2.3119E-09
       CONSTANT HEAD =           0.0000         CONSTANT HEAD =           0.0000
               WELLS =       1.3367E-02                 WELLS =           0.1642
          SWIADDTOCH =       2.5461E-10            SWIADDTOCH =       3.2006E-08

           TOTAL OUT =       1.3367E-02             TOTAL OUT =           0.1642

            IN - OUT =      -9.3132E-09              IN - OUT =      -2.9802E-08

 PERCENT DISCREPANCY =          -0.00     PERCENT DISCREPANCY =          -0.00






         TIME SUMMARY AT END OF TIME STEP   67 IN STRESS PERIOD    1
                    SECONDS     MINUTES      HOURS       DAYS        YEARS
                    -----------------------------------------------------------
   TIME STEP LENGTH  105.00      1.7500     2.91667E-02 1.21528E-03 3.32726E-06
 STRESS PERIOD TIME  7035.0      117.25      1.9542     8.14237E-02 2.22926E-04
         TOTAL TIME  7035.0      117.25      1.9542     8.14237E-02 2.22926E-04
1

 SOLVING FOR HEAD 
     2 EXTERNAL ITERATIONS FOR TIME STEP  68 IN STRESS PERIOD    1

 MAXIMUM HEAD CHANGE FOR EACH ITERATION:

     HEAD CHANGE  LAY,ROW,COL      HEAD CHANGE  LAY,ROW,COL  
 ------------------------------------------------------------
     2.040E-05 (  7,    1, 1000)  -2.410E-07 (  6,    1,  999)



 OUTPUT CONTROL FOR STRESS PERIOD    1   TIME STEP   68
    PRINT BUDGET
    SAVE HEAD FOR ALL LAYERS
 SOLVING FOR ZETA FOR LAYER     6 ZONE     2

     493 UPPER PART EQS.       494 LOWER PART EQS.    BAND WIDTH + 1 =    3
 STRESS PERIOD=  1 TIMESTEP= 68 LAYER=  6 ZONE=  2 ACTIVE CELLS=  987 NUMBER OF EQUATIONS=     987
 UBUDSV SAVING "      ZETASRF  1" ON UNIT 55 AT TIME STEP 68, STRESS PERIOD    1


                      VOLUMETRIC SWI ZONE BUDGET FOR ENTIRE MODEL
                     AT END OF TIME STEP   68 IN STRESS PERIOD   1
                                      ZONE     1
  -----------------------------------------------------------------------------------

        CUMULATIVE VOLUMES      L**3       RATES FOR THIS TIME STEP      L**3/T
        ------------------                 ------------------------

              IN:                                      IN:
              ---                                      ---
             BOUNDARIES =       1.3762E-08            BOUNDARIES =       1.7962E-07
          CONSTANT HEAD =       1.2617E-02         CONSTANT HEAD =           0.1556
            ZONE CHANGE =       9.6360E-04           ZONE CHANGE =       9.0179E-03
       ZONE CHG TIP/TOE =       1.7283E-05      ZONE CHG TIP/TOE =       3.2964E-05
            ZONE MIXING =           0.0000           ZONE MIXING =           0.0000

               TOTAL IN =       1.3597E-02              TOTAL IN =           0.1647

             OUT:                                     OUT:
             ----                                     ----
             BOUNDARIES =       1.3566E-02            BOUNDARIES =           0.1642
          CONSTANT HEAD =           0.0000         CONSTANT HEAD =           0.0000
            ZONE CHANGE =       3.0694E-05           ZONE CHANGE =       4.9371E-04
       ZONE CHG TIP/TOE =       1.5929E-07      ZONE CHG TIP/TOE =       2.4156E-06
            ZONE MIXING =           0.0000           ZONE MIXING =           0.0000

              TOTAL OUT =       1.3597E-02             TOTAL OUT =           0.1647

               IN - OUT =       5.5879E-07              IN - OUT =      -2.2203E-06

    PERCENT DISCREPANCY =           0.00     PERCENT DISCREPANCY =          -0.00



                      VOLUMETRIC SWI ZONE BUDGET FOR ENTIRE MODEL
                     AT END OF TIME STEP   68 IN STRESS PERIOD   1
                                      ZONE     2
  -----------------------------------------------------------------------------------

        CUMULATIVE VOLUMES      L**3       RATES FOR THIS TIME STEP      L**3/T
        ------------------                 ------------------------

              IN:                                      IN:
              ---                                      ---
             BOUNDARIES =       5.3433E-14            BOUNDARIES =       6.2303E-13
          CONSTANT HEAD =       8.8192E-04         CONSTANT HEAD =       8.5371E-03
            ZONE CHANGE =       2.9094E-05           ZONE CHANGE =       4.7870E-04
       ZONE CHG TIP/TOE =       1.5929E-07      ZONE CHG TIP/TOE =       2.4156E-06
            ZONE MIXING =           0.0000           ZONE MIXING =           0.0000

               TOTAL IN =       9.1118E-04              TOTAL IN =       9.0182E-03

             OUT:                                     OUT:
             ----                                     ----
             BOUNDARIES =       5.3479E-14            BOUNDARIES =       6.3251E-13
          CONSTANT HEAD =           0.0000         CONSTANT HEAD =           0.0000
            ZONE CHANGE =       8.9603E-04           ZONE CHANGE =       8.9977E-03
       ZONE CHG TIP/TOE =       1.5684E-05      ZONE CHG TIP/TOE =       1.7963E-05
            ZONE MIXING =           0.0000           ZONE MIXING =           0.0000

              TOTAL OUT =       9.1171E-04             TOTAL OUT =       9.0157E-03

               IN - OUT =      -5.3417E-07              IN - OUT =       2.4727E-06

    PERCENT DISCREPANCY =          -0.06     PERCENT DISCREPANCY =           0.03


 HEAD WILL BE SAVED ON UNIT   51 AT END OF TIME STEP   68, STRESS PERIOD    1
1
  VOLUMETRIC BUDGET FOR ENTIRE MODEL AT END OF TIME STEP   68, STRESS PERIOD   1
  ------------------------------------------------------------------------------

     CUMULATIVE VOLUMES      L**3       RATES FOR THIS TIME STEP      L**3/T
     ------------------                 ------------------------

           IN:                                      IN:
           ---                                      ---
             STORAGE =       6.7548E-05               STORAGE =       1.9871E-05
       CONSTANT HEAD =       1.3498E-02         CONSTANT HEAD =           0.1641
               WELLS =           0.0000                 WELLS =           0.0000
          SWIADDTOCH =           0.0000            SWIADDTOCH =           0.0000

            TOTAL IN =       1.3566E-02              TOTAL IN =           0.1642

          OUT:                                     OUT:
          ----                                     ----
             STORAGE =       2.9621E-10               STORAGE =       3.2381E-09
       CONSTANT HEAD =           0.0000         CONSTANT HEAD =           0.0000
               WELLS =       1.3566E-02                 WELLS =           0.1642
          SWIADDTOCH =       2.5461E-10            SWIADDTOCH =           0.0000

           TOTAL OUT =       1.3566E-02             TOTAL OUT =           0.1642

            IN - OUT =      -9.3132E-09              IN - OUT =      -5.9605E-08

 PERCENT DISCREPANCY =          -0.00     PERCENT DISCREPANCY =          -0.00






         TIME SUMMARY AT END OF TIME STEP   68 IN STRESS PERIOD    1
                    SECONDS     MINUTES      HOURS       DAYS        YEARS
                    -----------------------------------------------------------
   TIME STEP LENGTH  105.00      1.7500     2.91667E-02 1.21528E-03 3.32726E-06
 STRESS PERIOD TIME  7140.0      119.00      1.9833     8.26390E-02 2.26253E-04
         TOTAL TIME  7140.0      119.00      1.9833     8.26390E-02 2.26253E-04
1

 SOLVING FOR HEAD 
     2 EXTERNAL ITERATIONS FOR TIME STEP  69 IN STRESS PERIOD    1

 MAXIMUM HEAD CHANGE FOR EACH ITERATION:

     HEAD CHANGE  LAY,ROW,COL      HEAD CHANGE  LAY,ROW,COL  
 ------------------------------------------------------------
    -2.030E-05 (  6,    1, 1000)  -2.412E-07 (  6,    1,  999)



 OUTPUT CONTROL FOR STRESS PERIOD    1   TIME STEP   69
    PRINT BUDGET
    SAVE HEAD FOR ALL LAYERS
 SOLVING FOR ZETA FOR LAYER     6 ZONE     2

     495 UPPER PART EQS.       493 LOWER PART EQS.    BAND WIDTH + 1 =    5
 STRESS PERIOD=  1 TIMESTEP= 69 LAYER=  6 ZONE=  2 ACTIVE CELLS=  988 NUMBER OF EQUATIONS=     988
 UBUDSV SAVING "      ZETASRF  1" ON UNIT 55 AT TIME STEP 69, STRESS PERIOD    1


                      VOLUMETRIC SWI ZONE BUDGET FOR ENTIRE MODEL
                     AT END OF TIME STEP   69 IN STRESS PERIOD   1
                                      ZONE     1
  -----------------------------------------------------------------------------------

        CUMULATIVE VOLUMES      L**3       RATES FOR THIS TIME STEP      L**3/T
        ------------------                 ------------------------

              IN:                                      IN:
              ---                                      ---
             BOUNDARIES =       1.3940E-08            BOUNDARIES =       1.4649E-07
          CONSTANT HEAD =       1.2806E-02         CONSTANT HEAD =           0.1557
            ZONE CHANGE =       9.7444E-04           ZONE CHANGE =       8.9233E-03
       ZONE CHG TIP/TOE =       1.7322E-05      ZONE CHG TIP/TOE =       3.1542E-05
            ZONE MIXING =           0.0000           ZONE MIXING =           0.0000

               TOTAL IN =       1.3797E-02              TOTAL IN =           0.1646

             OUT:                                     OUT:
             ----                                     ----
             BOUNDARIES =       1.3766E-02            BOUNDARIES =           0.1642
          CONSTANT HEAD =           0.0000         CONSTANT HEAD =           0.0000
            ZONE CHANGE =       3.1241E-05           ZONE CHANGE =       4.5044E-04
       ZONE CHG TIP/TOE =       1.6344E-07      ZONE CHG TIP/TOE =       3.4107E-06
            ZONE MIXING =           0.0000           ZONE MIXING =           0.0000

              TOTAL OUT =       1.3797E-02             TOTAL OUT =           0.1646

               IN - OUT =       5.5600E-07              IN - OUT =      -2.2054E-06

    PERCENT DISCREPANCY =           0.00     PERCENT DISCREPANCY =          -0.00



                      VOLUMETRIC SWI ZONE BUDGET FOR ENTIRE MODEL
                     AT END OF TIME STEP   69 IN STRESS PERIOD   1
                                      ZONE     2
  -----------------------------------------------------------------------------------

        CUMULATIVE VOLUMES      L**3       RATES FOR THIS TIME STEP      L**3/T
        ------------------                 ------------------------

              IN:                                      IN:
              ---                                      ---
             BOUNDARIES =       5.4212E-14            BOUNDARIES =       6.4138E-13
          CONSTANT HEAD =       8.9223E-04         CONSTANT HEAD =       8.4833E-03
            ZONE CHANGE =       2.9622E-05           ZONE CHANGE =       4.3459E-04
       ZONE CHG TIP/TOE =       1.6344E-07      ZONE CHG TIP/TOE =       3.4107E-06
            ZONE MIXING =           0.0000           ZONE MIXING =           0.0000

               TOTAL IN =       9.2202E-04              TOTAL IN =       8.9213E-03

             OUT:                                     OUT:
             ----                                     ----
             BOUNDARIES =       5.4236E-14            BOUNDARIES =       6.2261E-13
          CONSTANT HEAD =           0.0000         CONSTANT HEAD =           0.0000
            ZONE CHANGE =       9.0685E-04           ZONE CHANGE =       8.9031E-03
       ZONE CHG TIP/TOE =       1.5703E-05      ZONE CHG TIP/TOE =       1.5691E-05
            ZONE MIXING =           0.0000           ZONE MIXING =           0.0000

              TOTAL OUT =       9.2255E-04             TOTAL OUT =       8.9188E-03

               IN - OUT =      -5.3120E-07              IN - OUT =       2.4373E-06

    PERCENT DISCREPANCY =          -0.06     PERCENT DISCREPANCY =           0.03


 HEAD WILL BE SAVED ON UNIT   51 AT END OF TIME STEP   69, STRESS PERIOD    1
1
  VOLUMETRIC BUDGET FOR ENTIRE MODEL AT END OF TIME STEP   69, STRESS PERIOD   1
  ------------------------------------------------------------------------------

     CUMULATIVE VOLUMES      L**3       RATES FOR THIS TIME STEP      L**3/T
     ------------------                 ------------------------

           IN:                                      IN:
           ---                                      ---
             STORAGE =       6.7572E-05               STORAGE =       1.9899E-05
       CONSTANT HEAD =       1.3698E-02         CONSTANT HEAD =           0.1641
               WELLS =           0.0000                 WELLS =           0.0000
          SWIADDTOCH =           0.0000            SWIADDTOCH =           0.0000

            TOTAL IN =       1.3766E-02              TOTAL IN =           0.1642

          OUT:                                     OUT:
          ----                                     ----
             STORAGE =       2.9901E-10               STORAGE =       2.3016E-09
       CONSTANT HEAD =           0.0000         CONSTANT HEAD =           0.0000
               WELLS =       1.3766E-02                 WELLS =           0.1642
          SWIADDTOCH =       2.5461E-10            SWIADDTOCH =           0.0000

           TOTAL OUT =       1.3766E-02             TOTAL OUT =           0.1642

            IN - OUT =      -9.3132E-09              IN - OUT =      -1.4901E-08

 PERCENT DISCREPANCY =          -0.00     PERCENT DISCREPANCY =          -0.00






         TIME SUMMARY AT END OF TIME STEP   69 IN STRESS PERIOD    1
                    SECONDS     MINUTES      HOURS       DAYS        YEARS
                    -----------------------------------------------------------
   TIME STEP LENGTH  105.00      1.7500     2.91667E-02 1.21528E-03 3.32726E-06
 STRESS PERIOD TIME  7245.0      120.75      2.0125     8.38543E-02 2.29580E-04
         TOTAL TIME  7245.0      120.75      2.0125     8.38543E-02 2.29580E-04
1

 SOLVING FOR HEAD 
     2 EXTERNAL ITERATIONS FOR TIME STEP  70 IN STRESS PERIOD    1

 MAXIMUM HEAD CHANGE FOR EACH ITERATION:

     HEAD CHANGE  LAY,ROW,COL      HEAD CHANGE  LAY,ROW,COL  
 ------------------------------------------------------------
    -2.027E-05 (  6,    1, 1000)  -2.409E-07 (  6,    1, 1000)



 OUTPUT CONTROL FOR STRESS PERIOD    1   TIME STEP   70
    PRINT BUDGET
    SAVE HEAD FOR ALL LAYERS
 SOLVING FOR ZETA FOR LAYER     6 ZONE     2

     493 UPPER PART EQS.       494 LOWER PART EQS.    BAND WIDTH + 1 =    3
 STRESS PERIOD=  1 TIMESTEP= 70 LAYER=  6 ZONE=  2 ACTIVE CELLS=  987 NUMBER OF EQUATIONS=     987
 UBUDSV SAVING "      ZETASRF  1" ON UNIT 55 AT TIME STEP 70, STRESS PERIOD    1


                      VOLUMETRIC SWI ZONE BUDGET FOR ENTIRE MODEL
                     AT END OF TIME STEP   70 IN STRESS PERIOD   1
                                      ZONE     1
  -----------------------------------------------------------------------------------

        CUMULATIVE VOLUMES      L**3       RATES FOR THIS TIME STEP      L**3/T
        ------------------                 ------------------------

              IN:                                      IN:
              ---                                      ---
             BOUNDARIES =       1.4151E-08            BOUNDARIES =       1.7340E-07
          CONSTANT HEAD =       1.2995E-02         CONSTANT HEAD =           0.1557
            ZONE CHANGE =       9.8517E-04           ZONE CHANGE =       8.8271E-03
       ZONE CHG TIP/TOE =       1.7354E-05      ZONE CHG TIP/TOE =       2.6523E-05
            ZONE MIXING =           0.0000           ZONE MIXING =           0.0000

               TOTAL IN =       1.3997E-02              TOTAL IN =           0.1646

             OUT:                                     OUT:
             ----                                     ----
             BOUNDARIES =       1.3965E-02            BOUNDARIES =           0.1642
          CONSTANT HEAD =           0.0000         CONSTANT HEAD =           0.0000
            ZONE CHANGE =       3.1743E-05           ZONE CHANGE =       4.1333E-04
       ZONE CHG TIP/TOE =       1.6733E-07      ZONE CHG TIP/TOE =       3.2083E-06
            ZONE MIXING =           0.0000           ZONE MIXING =           0.0000

              TOTAL OUT =       1.3997E-02             TOTAL OUT =           0.1646

               IN - OUT =       5.4110E-07              IN - OUT =      -1.2085E-05

    PERCENT DISCREPANCY =           0.00     PERCENT DISCREPANCY =          -0.01



                      VOLUMETRIC SWI ZONE BUDGET FOR ENTIRE MODEL
                     AT END OF TIME STEP   70 IN STRESS PERIOD   1
                                      ZONE     2
  -----------------------------------------------------------------------------------

        CUMULATIVE VOLUMES      L**3       RATES FOR THIS TIME STEP      L**3/T
        ------------------                 ------------------------

              IN:                                      IN:
              ---                                      ---
             BOUNDARIES =       5.5025E-14            BOUNDARIES =       6.6925E-13
          CONSTANT HEAD =       9.0248E-04         CONSTANT HEAD =       8.4293E-03
            ZONE CHANGE =       3.0113E-05           ZONE CHANGE =       4.0370E-04
       ZONE CHG TIP/TOE =       1.6733E-07      ZONE CHG TIP/TOE =       3.2083E-06
            ZONE MIXING =           0.0000           ZONE MIXING =           0.0000

               TOTAL IN =       9.3276E-04              TOTAL IN =       8.8362E-03

             OUT:                                     OUT:
             ----                                     ----
             BOUNDARIES =       5.5016E-14            BOUNDARIES =       6.4154E-13
          CONSTANT HEAD =           0.0000         CONSTANT HEAD =           0.0000
            ZONE CHANGE =       9.1755E-04           ZONE CHANGE =       8.8070E-03
       ZONE CHG TIP/TOE =       1.5723E-05      ZONE CHG TIP/TOE =       1.6899E-05
            ZONE MIXING =           0.0000           ZONE MIXING =           0.0000

              TOTAL OUT =       9.3327E-04             TOTAL OUT =       8.8239E-03

               IN - OUT =      -5.1624E-07              IN - OUT =       1.2343E-05

    PERCENT DISCREPANCY =          -0.06     PERCENT DISCREPANCY =           0.14


 HEAD WILL BE SAVED ON UNIT   51 AT END OF TIME STEP   70, STRESS PERIOD    1
1
  VOLUMETRIC BUDGET FOR ENTIRE MODEL AT END OF TIME STEP   70, STRESS PERIOD   1
  ------------------------------------------------------------------------------

     CUMULATIVE VOLUMES      L**3       RATES FOR THIS TIME STEP      L**3/T
     ------------------                 ------------------------

           IN:                                      IN:
           ---                                      ---
             STORAGE =       6.7596E-05               STORAGE =       1.9814E-05
       CONSTANT HEAD =       1.3897E-02         CONSTANT HEAD =           0.1641
               WELLS =           0.0000                 WELLS =           0.0000
          SWIADDTOCH =           0.0000            SWIADDTOCH =           0.0000

            TOTAL IN =       1.3965E-02              TOTAL IN =           0.1642

          OUT:                                     OUT:
          ----                                     ----
             STORAGE =       3.0520E-10               STORAGE =       5.0905E-09
       CONSTANT HEAD =           0.0000         CONSTANT HEAD =           0.0000
               WELLS =       1.3965E-02                 WELLS =           0.1642
          SWIADDTOCH =       2.5461E-10            SWIADDTOCH =           0.0000

           TOTAL OUT =       1.3965E-02             TOTAL OUT =           0.1642

            IN - OUT =      -1.0245E-08              IN - OUT =      -4.4703E-08

 PERCENT DISCREPANCY =          -0.00     PERCENT DISCREPANCY =          -0.00






         TIME SUMMARY AT END OF TIME STEP   70 IN STRESS PERIOD    1
                    SECONDS     MINUTES      HOURS       DAYS        YEARS
                    -----------------------------------------------------------
   TIME STEP LENGTH  105.00      1.7500     2.91667E-02 1.21528E-03 3.32726E-06
 STRESS PERIOD TIME  7350.0      122.50      2.0417     8.50695E-02 2.32908E-04
         TOTAL TIME  7350.0      122.50      2.0417     8.50695E-02 2.32908E-04
1

 SOLVING FOR HEAD 
     2 EXTERNAL ITERATIONS FOR TIME STEP  71 IN STRESS PERIOD    1

 MAXIMUM HEAD CHANGE FOR EACH ITERATION:

     HEAD CHANGE  LAY,ROW,COL      HEAD CHANGE  LAY,ROW,COL  
 ------------------------------------------------------------
    -2.026E-05 (  6,    1, 1000)  -2.408E-07 (  6,    1,  999)



 OUTPUT CONTROL FOR STRESS PERIOD    1   TIME STEP   71
    PRINT BUDGET
    SAVE HEAD FOR ALL LAYERS
 SOLVING FOR ZETA FOR LAYER     6 ZONE     2

     495 UPPER PART EQS.       494 LOWER PART EQS.    BAND WIDTH + 1 =    3
 STRESS PERIOD=  1 TIMESTEP= 71 LAYER=  6 ZONE=  2 ACTIVE CELLS=  989 NUMBER OF EQUATIONS=     989
 UBUDSV SAVING "      ZETASRF  1" ON UNIT 55 AT TIME STEP 71, STRESS PERIOD    1


                      VOLUMETRIC SWI ZONE BUDGET FOR ENTIRE MODEL
                     AT END OF TIME STEP   71 IN STRESS PERIOD   1
                                      ZONE     1
  -----------------------------------------------------------------------------------

        CUMULATIVE VOLUMES      L**3       RATES FOR THIS TIME STEP      L**3/T
        ------------------                 ------------------------

              IN:                                      IN:
              ---                                      ---
             BOUNDARIES =       1.4364E-08            BOUNDARIES =       1.7583E-07
          CONSTANT HEAD =       1.3184E-02         CONSTANT HEAD =           0.1558
            ZONE CHANGE =       9.9582E-04           ZONE CHANGE =       8.7589E-03
       ZONE CHG TIP/TOE =       1.7388E-05      ZONE CHG TIP/TOE =       2.7856E-05
            ZONE MIXING =           0.0000           ZONE MIXING =           0.0000

               TOTAL IN =       1.4197E-02              TOTAL IN =           0.1646

             OUT:                                     OUT:
             ----                                     ----
             BOUNDARIES =       1.4165E-02            BOUNDARIES =           0.1642
          CONSTANT HEAD =           0.0000         CONSTANT HEAD =           0.0000
            ZONE CHANGE =       3.2222E-05           ZONE CHANGE =       3.9399E-04
       ZONE CHG TIP/TOE =       1.7047E-07      ZONE CHG TIP/TOE =       2.5812E-06
            ZONE MIXING =           0.0000           ZONE MIXING =           0.0000

              TOTAL OUT =       1.4197E-02             TOTAL OUT =           0.1646

               IN - OUT =       5.3551E-07              IN - OUT =      -5.2899E-06

    PERCENT DISCREPANCY =           0.00     PERCENT DISCREPANCY =          -0.00



                      VOLUMETRIC SWI ZONE BUDGET FOR ENTIRE MODEL
                     AT END OF TIME STEP   71 IN STRESS PERIOD   1
                                      ZONE     2
  -----------------------------------------------------------------------------------

        CUMULATIVE VOLUMES      L**3       RATES FOR THIS TIME STEP      L**3/T
        ------------------                 ------------------------

              IN:                                      IN:
              ---                                      ---
             BOUNDARIES =       5.5805E-14            BOUNDARIES =       6.4160E-13
          CONSTANT HEAD =       9.1266E-04         CONSTANT HEAD =       8.3757E-03
            ZONE CHANGE =       3.0578E-05           ZONE CHANGE =       3.8294E-04
       ZONE CHG TIP/TOE =       1.7047E-07      ZONE CHG TIP/TOE =       2.5812E-06
            ZONE MIXING =           0.0000           ZONE MIXING =           0.0000

               TOTAL IN =       9.4340E-04              TOTAL IN =       8.7612E-03

             OUT:                                     OUT:
             ----                                     ----
             BOUNDARIES =       5.5839E-14            BOUNDARIES =       6.7736E-13
          CONSTANT HEAD =           0.0000         CONSTANT HEAD =           0.0000
            ZONE CHANGE =       9.2817E-04           ZONE CHANGE =       8.7388E-03
       ZONE CHG TIP/TOE =       1.5744E-05      ZONE CHG TIP/TOE =       1.6810E-05
            ZONE MIXING =           0.0000           ZONE MIXING =           0.0000

              TOTAL OUT =       9.4391E-04             TOTAL OUT =       8.7556E-03

               IN - OUT =      -5.0949E-07              IN - OUT =       5.5507E-06

    PERCENT DISCREPANCY =          -0.05     PERCENT DISCREPANCY =           0.06


 HEAD WILL BE SAVED ON UNIT   51 AT END OF TIME STEP   71, STRESS PERIOD    1
1
  VOLUMETRIC BUDGET FOR ENTIRE MODEL AT END OF TIME STEP   71, STRESS PERIOD   1
  ------------------------------------------------------------------------------

     CUMULATIVE VOLUMES      L**3       RATES FOR THIS TIME STEP      L**3/T
     ------------------                 ------------------------

           IN:                                      IN:
           ---                                      ---
             STORAGE =       6.7620E-05               STORAGE =       1.9792E-05
       CONSTANT HEAD =       1.4097E-02         CONSTANT HEAD =           0.1641
               WELLS =           0.0000                 WELLS =           0.0000
          SWIADDTOCH =           0.0000            SWIADDTOCH =           0.0000

            TOTAL IN =       1.4165E-02              TOTAL IN =           0.1642

          OUT:                                     OUT:
          ----                                     ----
             STORAGE =       3.0911E-10               STORAGE =       3.2230E-09
       CONSTANT HEAD =           0.0000         CONSTANT HEAD =           0.0000
               WELLS =       1.4165E-02                 WELLS =           0.1642
          SWIADDTOCH =       2.5461E-10            SWIADDTOCH =           0.0000

           TOTAL OUT =       1.4165E-02             TOTAL OUT =           0.1642

            IN - OUT =      -1.0245E-08              IN - OUT =      -4.4703E-08

 PERCENT DISCREPANCY =          -0.00     PERCENT DISCREPANCY =          -0.00






         TIME SUMMARY AT END OF TIME STEP   71 IN STRESS PERIOD    1
                    SECONDS     MINUTES      HOURS       DAYS        YEARS
                    -----------------------------------------------------------
   TIME STEP LENGTH  105.00      1.7500     2.91667E-02 1.21528E-03 3.32726E-06
 STRESS PERIOD TIME  7455.0      124.25      2.0708     8.62848E-02 2.36235E-04
         TOTAL TIME  7455.0      124.25      2.0708     8.62848E-02 2.36235E-04
1

 SOLVING FOR HEAD 
     2 EXTERNAL ITERATIONS FOR TIME STEP  72 IN STRESS PERIOD    1

 MAXIMUM HEAD CHANGE FOR EACH ITERATION:

     HEAD CHANGE  LAY,ROW,COL      HEAD CHANGE  LAY,ROW,COL  
 ------------------------------------------------------------
    -2.043E-05 (  6,    1, 1000)  -2.452E-07 (  6,    1, 1000)



 OUTPUT CONTROL FOR STRESS PERIOD    1   TIME STEP   72
    PRINT BUDGET
    SAVE HEAD FOR ALL LAYERS
 SOLVING FOR ZETA FOR LAYER     6 ZONE     2

     495 UPPER PART EQS.       495 LOWER PART EQS.    BAND WIDTH + 1 =    4
 STRESS PERIOD=  1 TIMESTEP= 72 LAYER=  6 ZONE=  2 ACTIVE CELLS=  990 NUMBER OF EQUATIONS=     990
 UBUDSV SAVING "      ZETASRF  1" ON UNIT 55 AT TIME STEP 72, STRESS PERIOD    1


                      VOLUMETRIC SWI ZONE BUDGET FOR ENTIRE MODEL
                     AT END OF TIME STEP   72 IN STRESS PERIOD   1
                                      ZONE     1
  -----------------------------------------------------------------------------------

        CUMULATIVE VOLUMES      L**3       RATES FOR THIS TIME STEP      L**3/T
        ------------------                 ------------------------

              IN:                                      IN:
              ---                                      ---
             BOUNDARIES =       1.4553E-08            BOUNDARIES =       1.5539E-07
          CONSTANT HEAD =       1.3374E-02         CONSTANT HEAD =           0.1558
            ZONE CHANGE =       1.0064E-03           ZONE CHANGE =       8.6692E-03
       ZONE CHG TIP/TOE =       1.7410E-05      ZONE CHG TIP/TOE =       1.8511E-05
            ZONE MIXING =           0.0000           ZONE MIXING =           0.0000

               TOTAL IN =       1.4397E-02              TOTAL IN =           0.1645

             OUT:                                     OUT:
             ----                                     ----
             BOUNDARIES =       1.4364E-02            BOUNDARIES =           0.1642
          CONSTANT HEAD =           0.0000         CONSTANT HEAD =           0.0000
            ZONE CHANGE =       3.2649E-05           ZONE CHANGE =       3.5145E-04
       ZONE CHG TIP/TOE =       1.7191E-07      ZONE CHG TIP/TOE =       1.1857E-06
            ZONE MIXING =           0.0000           ZONE MIXING =           0.0000

              TOTAL OUT =       1.4397E-02             TOTAL OUT =           0.1645

               IN - OUT =       5.2527E-07              IN - OUT =      -8.0913E-06

    PERCENT DISCREPANCY =           0.00     PERCENT DISCREPANCY =          -0.00



                      VOLUMETRIC SWI ZONE BUDGET FOR ENTIRE MODEL
                     AT END OF TIME STEP   72 IN STRESS PERIOD   1
                                      ZONE     2
  -----------------------------------------------------------------------------------

        CUMULATIVE VOLUMES      L**3       RATES FOR THIS TIME STEP      L**3/T
        ------------------                 ------------------------

              IN:                                      IN:
              ---                                      ---
             BOUNDARIES =       5.6546E-14            BOUNDARIES =       6.0955E-13
          CONSTANT HEAD =       9.2277E-04         CONSTANT HEAD =       8.3231E-03
            ZONE CHANGE =       3.0994E-05           ZONE CHANGE =       3.4187E-04
       ZONE CHG TIP/TOE =       1.7191E-07      ZONE CHG TIP/TOE =       1.1857E-06
            ZONE MIXING =           0.0000           ZONE MIXING =           0.0000

               TOTAL IN =       9.5394E-04              TOTAL IN =       8.6661E-03

             OUT:                                     OUT:
             ----                                     ----
             BOUNDARIES =       5.6650E-14            BOUNDARIES =       6.6762E-13
          CONSTANT HEAD =           0.0000         CONSTANT HEAD =           0.0000
            ZONE CHANGE =       9.3868E-04           ZONE CHANGE =       8.6488E-03
       ZONE CHG TIP/TOE =       1.5755E-05      ZONE CHG TIP/TOE =       8.9307E-06
            ZONE MIXING =           0.0000           ZONE MIXING =           0.0000

              TOTAL OUT =       9.5444E-04             TOTAL OUT =       8.6578E-03

               IN - OUT =      -4.9942E-07              IN - OUT =       8.3288E-06

    PERCENT DISCREPANCY =          -0.05     PERCENT DISCREPANCY =           0.10


 HEAD WILL BE SAVED ON UNIT   51 AT END OF TIME STEP   72, STRESS PERIOD    1
1
  VOLUMETRIC BUDGET FOR ENTIRE MODEL AT END OF TIME STEP   72, STRESS PERIOD   1
  ------------------------------------------------------------------------------

     CUMULATIVE VOLUMES      L**3       RATES FOR THIS TIME STEP      L**3/T
     ------------------                 ------------------------

           IN:                                      IN:
           ---                                      ---
             STORAGE =       6.7644E-05               STORAGE =       2.0031E-05
       CONSTANT HEAD =       1.4296E-02         CONSTANT HEAD =           0.1641
               WELLS =           0.0000                 WELLS =           0.0000
          SWIADDTOCH =           0.0000            SWIADDTOCH =           0.0000

            TOTAL IN =       1.4364E-02              TOTAL IN =           0.1642

          OUT:                                     OUT:
          ----                                     ----
             STORAGE =       3.1189E-10               STORAGE =       2.2818E-09
       CONSTANT HEAD =           0.0000         CONSTANT HEAD =           0.0000
               WELLS =       1.4364E-02                 WELLS =           0.1642
          SWIADDTOCH =       2.5461E-10            SWIADDTOCH =           0.0000

           TOTAL OUT =       1.4364E-02             TOTAL OUT =           0.1642

            IN - OUT =      -1.0245E-08              IN - OUT =      -2.9802E-08

 PERCENT DISCREPANCY =          -0.00     PERCENT DISCREPANCY =          -0.00






         TIME SUMMARY AT END OF TIME STEP   72 IN STRESS PERIOD    1
                    SECONDS     MINUTES      HOURS       DAYS        YEARS
                    -----------------------------------------------------------
   TIME STEP LENGTH  105.00      1.7500     2.91667E-02 1.21528E-03 3.32726E-06
 STRESS PERIOD TIME  7560.0      126.00      2.1000     8.75001E-02 2.39562E-04
         TOTAL TIME  7560.0      126.00      2.1000     8.75001E-02 2.39562E-04
1

 SOLVING FOR HEAD 
     2 EXTERNAL ITERATIONS FOR TIME STEP  73 IN STRESS PERIOD    1

 MAXIMUM HEAD CHANGE FOR EACH ITERATION:

     HEAD CHANGE  LAY,ROW,COL      HEAD CHANGE  LAY,ROW,COL  
 ------------------------------------------------------------
    -2.005E-05 (  6,    1,  999)  -2.358E-07 (  6,    1,  999)



 OUTPUT CONTROL FOR STRESS PERIOD    1   TIME STEP   73
    PRINT BUDGET
    SAVE HEAD FOR ALL LAYERS
 SOLVING FOR ZETA FOR LAYER     6 ZONE     2

     495 UPPER PART EQS.       496 LOWER PART EQS.    BAND WIDTH + 1 =    3
 STRESS PERIOD=  1 TIMESTEP= 73 LAYER=  6 ZONE=  2 ACTIVE CELLS=  991 NUMBER OF EQUATIONS=     991
 UBUDSV SAVING "      ZETASRF  1" ON UNIT 55 AT TIME STEP 73, STRESS PERIOD    1


                      VOLUMETRIC SWI ZONE BUDGET FOR ENTIRE MODEL
                     AT END OF TIME STEP   73 IN STRESS PERIOD   1
                                      ZONE     1
  -----------------------------------------------------------------------------------

        CUMULATIVE VOLUMES      L**3       RATES FOR THIS TIME STEP      L**3/T
        ------------------                 ------------------------

              IN:                                      IN:
              ---                                      ---
             BOUNDARIES =       1.4753E-08            BOUNDARIES =       1.6453E-07
          CONSTANT HEAD =       1.3563E-02         CONSTANT HEAD =           0.1559
            ZONE CHANGE =       1.0167E-03           ZONE CHANGE =       8.5497E-03
       ZONE CHG TIP/TOE =       1.7430E-05      ZONE CHG TIP/TOE =       1.6522E-05
            ZONE MIXING =           0.0000           ZONE MIXING =           0.0000

               TOTAL IN =       1.4597E-02              TOTAL IN =           0.1644

             OUT:                                     OUT:
             ----                                     ----
             BOUNDARIES =       1.4564E-02            BOUNDARIES =           0.1642
          CONSTANT HEAD =           0.0000         CONSTANT HEAD =           0.0000
            ZONE CHANGE =       3.3003E-05           ZONE CHANGE =       2.9116E-04
       ZONE CHG TIP/TOE =       1.7467E-07      ZONE CHG TIP/TOE =       2.2731E-06
            ZONE MIXING =           0.0000           ZONE MIXING =           0.0000

              TOTAL OUT =       1.4597E-02             TOTAL OUT =           0.1645

               IN - OUT =       5.0757E-07              IN - OUT =      -1.4693E-05

    PERCENT DISCREPANCY =           0.00     PERCENT DISCREPANCY =          -0.01



                      VOLUMETRIC SWI ZONE BUDGET FOR ENTIRE MODEL
                     AT END OF TIME STEP   73 IN STRESS PERIOD   1
                                      ZONE     2
  -----------------------------------------------------------------------------------

        CUMULATIVE VOLUMES      L**3       RATES FOR THIS TIME STEP      L**3/T
        ------------------                 ------------------------

              IN:                                      IN:
              ---                                      ---
             BOUNDARIES =       5.7380E-14            BOUNDARIES =       6.8600E-13
          CONSTANT HEAD =       9.3282E-04         CONSTANT HEAD =       8.2678E-03
            ZONE CHANGE =       3.1341E-05           ZONE CHANGE =       2.8581E-04
       ZONE CHG TIP/TOE =       1.7467E-07      ZONE CHG TIP/TOE =       2.2731E-06
            ZONE MIXING =           0.0000           ZONE MIXING =           0.0000

               TOTAL IN =       9.6433E-04              TOTAL IN =       8.5559E-03

             OUT:                                     OUT:
             ----                                     ----
             BOUNDARIES =       5.7457E-14            BOUNDARIES =       6.6403E-13
          CONSTANT HEAD =           0.0000         CONSTANT HEAD =           0.0000
            ZONE CHANGE =       9.4905E-04           ZONE CHANGE =       8.5298E-03
       ZONE CHG TIP/TOE =       1.5768E-05      ZONE CHG TIP/TOE =       1.1164E-05
            ZONE MIXING =           0.0000           ZONE MIXING =           0.0000

              TOTAL OUT =       9.6482E-04             TOTAL OUT =       8.5410E-03

               IN - OUT =      -4.8120E-07              IN - OUT =       1.4951E-05

    PERCENT DISCREPANCY =          -0.05     PERCENT DISCREPANCY =           0.17


 HEAD WILL BE SAVED ON UNIT   51 AT END OF TIME STEP   73, STRESS PERIOD    1
1
  VOLUMETRIC BUDGET FOR ENTIRE MODEL AT END OF TIME STEP   73, STRESS PERIOD   1
  ------------------------------------------------------------------------------

     CUMULATIVE VOLUMES      L**3       RATES FOR THIS TIME STEP      L**3/T
     ------------------                 ------------------------

           IN:                                      IN:
           ---                                      ---
             STORAGE =       6.7668E-05               STORAGE =       1.9582E-05
       CONSTANT HEAD =       1.4496E-02         CONSTANT HEAD =           0.1641
               WELLS =           0.0000                 WELLS =           0.0000
          SWIADDTOCH =           0.0000            SWIADDTOCH =           0.0000

            TOTAL IN =       1.4564E-02              TOTAL IN =           0.1642

          OUT:                                     OUT:
          ----                                     ----
             STORAGE =       3.1920E-10               STORAGE =       6.0161E-09
       CONSTANT HEAD =           0.0000         CONSTANT HEAD =           0.0000
               WELLS =       1.4564E-02                 WELLS =           0.1642
          SWIADDTOCH =       2.9645E-10            SWIADDTOCH =       3.4431E-08

           TOTAL OUT =       1.4564E-02             TOTAL OUT =           0.1642

            IN - OUT =      -1.0245E-08              IN - OUT =      -2.9802E-08

 PERCENT DISCREPANCY =          -0.00     PERCENT DISCREPANCY =          -0.00






         TIME SUMMARY AT END OF TIME STEP   73 IN STRESS PERIOD    1
                    SECONDS     MINUTES      HOURS       DAYS        YEARS
                    -----------------------------------------------------------
   TIME STEP LENGTH  105.00      1.7500     2.91667E-02 1.21528E-03 3.32726E-06
 STRESS PERIOD TIME  7665.0      127.75      2.1292     8.87154E-02 2.42889E-04
         TOTAL TIME  7665.0      127.75      2.1292     8.87154E-02 2.42889E-04
1

 SOLVING FOR HEAD 
     2 EXTERNAL ITERATIONS FOR TIME STEP  74 IN STRESS PERIOD    1

 MAXIMUM HEAD CHANGE FOR EACH ITERATION:

     HEAD CHANGE  LAY,ROW,COL      HEAD CHANGE  LAY,ROW,COL  
 ------------------------------------------------------------
    -2.022E-05 (  6,    1, 1000)  -2.399E-07 (  6,    1,  999)



 OUTPUT CONTROL FOR STRESS PERIOD    1   TIME STEP   74
    PRINT BUDGET
    SAVE HEAD FOR ALL LAYERS
 SOLVING FOR ZETA FOR LAYER     6 ZONE     2

     497 UPPER PART EQS.       496 LOWER PART EQS.    BAND WIDTH + 1 =    5
 STRESS PERIOD=  1 TIMESTEP= 74 LAYER=  6 ZONE=  2 ACTIVE CELLS=  993 NUMBER OF EQUATIONS=     993
 UBUDSV SAVING "      ZETASRF  1" ON UNIT 55 AT TIME STEP 74, STRESS PERIOD    1


                      VOLUMETRIC SWI ZONE BUDGET FOR ENTIRE MODEL
                     AT END OF TIME STEP   74 IN STRESS PERIOD   1
                                      ZONE     1
  -----------------------------------------------------------------------------------

        CUMULATIVE VOLUMES      L**3       RATES FOR THIS TIME STEP      L**3/T
        ------------------                 ------------------------

              IN:                                      IN:
              ---                                      ---
             BOUNDARIES =       1.4960E-08            BOUNDARIES =       1.7027E-07
          CONSTANT HEAD =       1.3753E-02         CONSTANT HEAD =           0.1559
            ZONE CHANGE =       1.0271E-03           ZONE CHANGE =       8.5079E-03
       ZONE CHG TIP/TOE =       1.7455E-05      ZONE CHG TIP/TOE =       2.0076E-05
            ZONE MIXING =           0.0000           ZONE MIXING =           0.0000

               TOTAL IN =       1.4797E-02              TOTAL IN =           0.1645

             OUT:                                     OUT:
             ----                                     ----
             BOUNDARIES =       1.4763E-02            BOUNDARIES =           0.1642
          CONSTANT HEAD =           0.0000         CONSTANT HEAD =           0.0000
            ZONE CHANGE =       3.3362E-05           ZONE CHANGE =       2.9537E-04
       ZONE CHG TIP/TOE =       1.7577E-07      ZONE CHG TIP/TOE =       9.0458E-07
            ZONE MIXING =           0.0000           ZONE MIXING =           0.0000

              TOTAL OUT =       1.4797E-02             TOTAL OUT =           0.1645

               IN - OUT =       5.0571E-07              IN - OUT =      -2.0415E-06

    PERCENT DISCREPANCY =           0.00     PERCENT DISCREPANCY =          -0.00



                      VOLUMETRIC SWI ZONE BUDGET FOR ENTIRE MODEL
                     AT END OF TIME STEP   74 IN STRESS PERIOD   1
                                      ZONE     2
  -----------------------------------------------------------------------------------

        CUMULATIVE VOLUMES      L**3       RATES FOR THIS TIME STEP      L**3/T
        ------------------                 ------------------------

              IN:                                      IN:
              ---                                      ---
             BOUNDARIES =       5.8170E-14            BOUNDARIES =       6.5070E-13
          CONSTANT HEAD =       9.4280E-04         CONSTANT HEAD =       8.2141E-03
            ZONE CHANGE =       3.1684E-05           ZONE CHANGE =       2.8233E-04
       ZONE CHG TIP/TOE =       1.7577E-07      ZONE CHG TIP/TOE =       9.0458E-07
            ZONE MIXING =           0.0000           ZONE MIXING =           0.0000

               TOTAL IN =       9.7466E-04              TOTAL IN =       8.4973E-03

             OUT:                                     OUT:
             ----                                     ----
             BOUNDARIES =       5.8228E-14            BOUNDARIES =       6.3414E-13
          CONSTANT HEAD =           0.0000         CONSTANT HEAD =           0.0000
            ZONE CHANGE =       9.5936E-04           ZONE CHANGE =       8.4880E-03
       ZONE CHG TIP/TOE =       1.5777E-05      ZONE CHG TIP/TOE =       7.0329E-06
            ZONE MIXING =           0.0000           ZONE MIXING =           0.0000

              TOTAL OUT =       9.7514E-04             TOTAL OUT =       8.4950E-03

               IN - OUT =      -4.7835E-07              IN - OUT =       2.3134E-06

    PERCENT DISCREPANCY =          -0.05     PERCENT DISCREPANCY =           0.03


 HEAD WILL BE SAVED ON UNIT   51 AT END OF TIME STEP   74, STRESS PERIOD    1
1
  VOLUMETRIC BUDGET FOR ENTIRE MODEL AT END OF TIME STEP   74, STRESS PERIOD   1
  ------------------------------------------------------------------------------

     CUMULATIVE VOLUMES      L**3       RATES FOR THIS TIME STEP      L**3/T
     ------------------                 ------------------------

           IN:                                      IN:
           ---                                      ---
             STORAGE =       6.7692E-05               STORAGE =       1.9609E-05
       CONSTANT HEAD =       1.4695E-02         CONSTANT HEAD =           0.1641
               WELLS =           0.0000                 WELLS =           0.0000
          SWIADDTOCH =           0.0000            SWIADDTOCH =           0.0000

            TOTAL IN =       1.4763E-02              TOTAL IN =           0.1642

          OUT:                                     OUT:
          ----                                     ----
             STORAGE =       3.2196E-10               STORAGE =       2.2772E-09
       CONSTANT HEAD =           0.0000         CONSTANT HEAD =           0.0000
               WELLS =       1.4763E-02                 WELLS =           0.1642
          SWIADDTOCH =       2.9645E-10            SWIADDTOCH =           0.0000

           TOTAL OUT =       1.4763E-02             TOTAL OUT =           0.1642

            IN - OUT =      -1.0245E-08              IN - OUT =      -4.4703E-08

 PERCENT DISCREPANCY =          -0.00     PERCENT DISCREPANCY =          -0.00






         TIME SUMMARY AT END OF TIME STEP   74 IN STRESS PERIOD    1
                    SECONDS     MINUTES      HOURS       DAYS        YEARS
                    -----------------------------------------------------------
   TIME STEP LENGTH  105.00      1.7500     2.91667E-02 1.21528E-03 3.32726E-06
 STRESS PERIOD TIME  7770.0      129.50      2.1583     8.99307E-02 2.46217E-04
         TOTAL TIME  7770.0      129.50      2.1583     8.99307E-02 2.46217E-04
1

 SOLVING FOR HEAD 
     2 EXTERNAL ITERATIONS FOR TIME STEP  75 IN STRESS PERIOD    1

 MAXIMUM HEAD CHANGE FOR EACH ITERATION:

     HEAD CHANGE  LAY,ROW,COL      HEAD CHANGE  LAY,ROW,COL  
 ------------------------------------------------------------
    -2.043E-05 (  6,    1, 1000)  -2.452E-07 (  6,    1, 1000)



 OUTPUT CONTROL FOR STRESS PERIOD    1   TIME STEP   75
    PRINT BUDGET
    SAVE HEAD FOR ALL LAYERS
 SOLVING FOR ZETA FOR LAYER     6 ZONE     2

     494 UPPER PART EQS.       496 LOWER PART EQS.    BAND WIDTH + 1 =    3
 STRESS PERIOD=  1 TIMESTEP= 75 LAYER=  6 ZONE=  2 ACTIVE CELLS=  990 NUMBER OF EQUATIONS=     990
 UBUDSV SAVING "      ZETASRF  1" ON UNIT 55 AT TIME STEP 75, STRESS PERIOD    1


                      VOLUMETRIC SWI ZONE BUDGET FOR ENTIRE MODEL
                     AT END OF TIME STEP   75 IN STRESS PERIOD   1
                                      ZONE     1
  -----------------------------------------------------------------------------------

        CUMULATIVE VOLUMES      L**3       RATES FOR THIS TIME STEP      L**3/T
        ------------------                 ------------------------

              IN:                                      IN:
              ---                                      ---
             BOUNDARIES =       1.5154E-08            BOUNDARIES =       1.5985E-07
          CONSTANT HEAD =       1.3942E-02         CONSTANT HEAD =           0.1560
            ZONE CHANGE =       1.0373E-03           ZONE CHANGE =       8.3822E-03
       ZONE CHG TIP/TOE =       1.7482E-05      ZONE CHG TIP/TOE =       2.2752E-05
            ZONE MIXING =           0.0000           ZONE MIXING =           0.0000

               TOTAL IN =       1.4997E-02              TOTAL IN =           0.1644

             OUT:                                     OUT:
             ----                                     ----
             BOUNDARIES =       1.4963E-02            BOUNDARIES =           0.1642
          CONSTANT HEAD =           0.0000         CONSTANT HEAD =           0.0000
            ZONE CHANGE =       3.3635E-05           ZONE CHANGE =       2.2420E-04
       ZONE CHG TIP/TOE =       1.7609E-07      ZONE CHG TIP/TOE =       2.6374E-07
            ZONE MIXING =           0.0000           ZONE MIXING =           0.0000

              TOTAL OUT =       1.4996E-02             TOTAL OUT =           0.1644

               IN - OUT =       5.0478E-07              IN - OUT =      -9.2387E-07

    PERCENT DISCREPANCY =           0.00     PERCENT DISCREPANCY =          -0.00



                      VOLUMETRIC SWI ZONE BUDGET FOR ENTIRE MODEL
                     AT END OF TIME STEP   75 IN STRESS PERIOD   1
                                      ZONE     2
  -----------------------------------------------------------------------------------

        CUMULATIVE VOLUMES      L**3       RATES FOR THIS TIME STEP      L**3/T
        ------------------                 ------------------------

              IN:                                      IN:
              ---                                      ---
             BOUNDARIES =       5.8966E-14            BOUNDARIES =       6.5505E-13
          CONSTANT HEAD =       9.5272E-04         CONSTANT HEAD =       8.1614E-03
            ZONE CHANGE =       3.1942E-05           ZONE CHANGE =       2.1248E-04
       ZONE CHG TIP/TOE =       1.7609E-07      ZONE CHG TIP/TOE =       2.6374E-07
            ZONE MIXING =           0.0000           ZONE MIXING =           0.0000

               TOTAL IN =       9.8484E-04              TOTAL IN =       8.3742E-03

             OUT:                                     OUT:
             ----                                     ----
             BOUNDARIES =       5.8993E-14            BOUNDARIES =       6.3003E-13
          CONSTANT HEAD =           0.0000         CONSTANT HEAD =           0.0000
            ZONE CHANGE =       9.6952E-04           ZONE CHANGE =       8.3620E-03
       ZONE CHG TIP/TOE =       1.5790E-05      ZONE CHG TIP/TOE =       1.1034E-05
            ZONE MIXING =           0.0000           ZONE MIXING =           0.0000

              TOTAL OUT =       9.8532E-04             TOTAL OUT =       8.3730E-03

               IN - OUT =      -4.7684E-07              IN - OUT =       1.2079E-06

    PERCENT DISCREPANCY =          -0.05     PERCENT DISCREPANCY =           0.01


 HEAD WILL BE SAVED ON UNIT   51 AT END OF TIME STEP   75, STRESS PERIOD    1
1
  VOLUMETRIC BUDGET FOR ENTIRE MODEL AT END OF TIME STEP   75, STRESS PERIOD   1
  ------------------------------------------------------------------------------

     CUMULATIVE VOLUMES      L**3       RATES FOR THIS TIME STEP      L**3/T
     ------------------                 ------------------------

           IN:                                      IN:
           ---                                      ---
             STORAGE =       6.7716E-05               STORAGE =       1.9919E-05
       CONSTANT HEAD =       1.4895E-02         CONSTANT HEAD =           0.1641
               WELLS =           0.0000                 WELLS =           0.0000
          SWIADDTOCH =           0.0000            SWIADDTOCH =           0.0000

            TOTAL IN =       1.4963E-02              TOTAL IN =           0.1642

          OUT:                                     OUT:
          ----                                     ----
             STORAGE =       3.2811E-10               STORAGE =       5.0612E-09
       CONSTANT HEAD =           0.0000         CONSTANT HEAD =           0.0000
               WELLS =       1.4963E-02                 WELLS =           0.1642
          SWIADDTOCH =       2.9645E-10            SWIADDTOCH =           0.0000

           TOTAL OUT =       1.4963E-02             TOTAL OUT =           0.1642

            IN - OUT =      -1.0245E-08              IN - OUT =      -1.4901E-08

 PERCENT DISCREPANCY =          -0.00     PERCENT DISCREPANCY =          -0.00






         TIME SUMMARY AT END OF TIME STEP   75 IN STRESS PERIOD    1
                    SECONDS     MINUTES      HOURS       DAYS        YEARS
                    -----------------------------------------------------------
   TIME STEP LENGTH  105.00      1.7500     2.91667E-02 1.21528E-03 3.32726E-06
 STRESS PERIOD TIME  7875.0      131.25      2.1875     9.11460E-02 2.49544E-04
         TOTAL TIME  7875.0      131.25      2.1875     9.11460E-02 2.49544E-04
1

 SOLVING FOR HEAD 
     2 EXTERNAL ITERATIONS FOR TIME STEP  76 IN STRESS PERIOD    1

 MAXIMUM HEAD CHANGE FOR EACH ITERATION:

     HEAD CHANGE  LAY,ROW,COL      HEAD CHANGE  LAY,ROW,COL  
 ------------------------------------------------------------
    -1.998E-05 (  6,    1, 1000)  -2.338E-07 (  6,    1,  999)



 OUTPUT CONTROL FOR STRESS PERIOD    1   TIME STEP   76
    PRINT BUDGET
    SAVE HEAD FOR ALL LAYERS
 SOLVING FOR ZETA FOR LAYER     6 ZONE     2

     495 UPPER PART EQS.       496 LOWER PART EQS.    BAND WIDTH + 1 =    3
 STRESS PERIOD=  1 TIMESTEP= 76 LAYER=  6 ZONE=  2 ACTIVE CELLS=  991 NUMBER OF EQUATIONS=     991
 UBUDSV SAVING "      ZETASRF  1" ON UNIT 55 AT TIME STEP 76, STRESS PERIOD    1


                      VOLUMETRIC SWI ZONE BUDGET FOR ENTIRE MODEL
                     AT END OF TIME STEP   76 IN STRESS PERIOD   1
                                      ZONE     1
  -----------------------------------------------------------------------------------

        CUMULATIVE VOLUMES      L**3       RATES FOR THIS TIME STEP      L**3/T
        ------------------                 ------------------------

              IN:                                      IN:
              ---                                      ---
             BOUNDARIES =       1.5365E-08            BOUNDARIES =       1.7341E-07
          CONSTANT HEAD =       1.4132E-02         CONSTANT HEAD =           0.1560
            ZONE CHANGE =       1.0476E-03           ZONE CHANGE =       8.5037E-03
       ZONE CHG TIP/TOE =       1.7509E-05      ZONE CHG TIP/TOE =       2.1629E-05
            ZONE MIXING =           0.0000           ZONE MIXING =           0.0000

               TOTAL IN =       1.5197E-02              TOTAL IN =           0.1646

             OUT:                                     OUT:
             ----                                     ----
             BOUNDARIES =       1.5162E-02            BOUNDARIES =           0.1642
          CONSTANT HEAD =           0.0000         CONSTANT HEAD =           0.0000
            ZONE CHANGE =       3.4121E-05           ZONE CHANGE =       4.0056E-04
       ZONE CHG TIP/TOE =       1.7770E-07      ZONE CHG TIP/TOE =       1.3178E-06
            ZONE MIXING =           0.0000           ZONE MIXING =           0.0000

              TOTAL OUT =       1.5196E-02             TOTAL OUT =           0.1646

               IN - OUT =       5.0291E-07              IN - OUT =      -1.5795E-06

    PERCENT DISCREPANCY =           0.00     PERCENT DISCREPANCY =          -0.00



                      VOLUMETRIC SWI ZONE BUDGET FOR ENTIRE MODEL
                     AT END OF TIME STEP   76 IN STRESS PERIOD   1
                                      ZONE     2
  -----------------------------------------------------------------------------------

        CUMULATIVE VOLUMES      L**3       RATES FOR THIS TIME STEP      L**3/T
        ------------------                 ------------------------

              IN:                                      IN:
              ---                                      ---
             BOUNDARIES =       5.9701E-14            BOUNDARIES =       6.0426E-13
          CONSTANT HEAD =       9.6257E-04         CONSTANT HEAD =       8.1056E-03
            ZONE CHANGE =       3.2414E-05           ZONE CHANGE =       3.8787E-04
       ZONE CHG TIP/TOE =       1.7770E-07      ZONE CHG TIP/TOE =       1.3178E-06
            ZONE MIXING =           0.0000           ZONE MIXING =           0.0000

               TOTAL IN =       9.9516E-04              TOTAL IN =       8.4948E-03

             OUT:                                     OUT:
             ----                                     ----
             BOUNDARIES =       5.9806E-14            BOUNDARIES =       6.6892E-13
          CONSTANT HEAD =           0.0000         CONSTANT HEAD =           0.0000
            ZONE CHANGE =       9.7984E-04           ZONE CHANGE =       8.4840E-03
       ZONE CHG TIP/TOE =       1.5801E-05      ZONE CHG TIP/TOE =       8.9364E-06
            ZONE MIXING =           0.0000           ZONE MIXING =           0.0000

              TOTAL OUT =       9.9564E-04             TOTAL OUT =       8.4929E-03

               IN - OUT =      -4.7463E-07              IN - OUT =       1.8468E-06

    PERCENT DISCREPANCY =          -0.05     PERCENT DISCREPANCY =           0.02


 HEAD WILL BE SAVED ON UNIT   51 AT END OF TIME STEP   76, STRESS PERIOD    1
1
  VOLUMETRIC BUDGET FOR ENTIRE MODEL AT END OF TIME STEP   76, STRESS PERIOD   1
  ------------------------------------------------------------------------------

     CUMULATIVE VOLUMES      L**3       RATES FOR THIS TIME STEP      L**3/T
     ------------------                 ------------------------

           IN:                                      IN:
           ---                                      ---
             STORAGE =       6.7740E-05               STORAGE =       1.9379E-05
       CONSTANT HEAD =       1.5094E-02         CONSTANT HEAD =           0.1641
               WELLS =           0.0000                 WELLS =           0.0000
          SWIADDTOCH =           0.0000            SWIADDTOCH =           0.0000

            TOTAL IN =       1.5162E-02              TOTAL IN =           0.1642

          OUT:                                     OUT:
          ----                                     ----
             STORAGE =       3.3088E-10               STORAGE =       2.2790E-09
       CONSTANT HEAD =           0.0000         CONSTANT HEAD =           0.0000
               WELLS =       1.5162E-02                 WELLS =           0.1642
          SWIADDTOCH =       2.9645E-10            SWIADDTOCH =           0.0000

           TOTAL OUT =       1.5162E-02             TOTAL OUT =           0.1642

            IN - OUT =      -1.0245E-08              IN - OUT =      -2.9802E-08

 PERCENT DISCREPANCY =          -0.00     PERCENT DISCREPANCY =          -0.00






         TIME SUMMARY AT END OF TIME STEP   76 IN STRESS PERIOD    1
                    SECONDS     MINUTES      HOURS       DAYS        YEARS
                    -----------------------------------------------------------
   TIME STEP LENGTH  105.00      1.7500     2.91667E-02 1.21528E-03 3.32726E-06
 STRESS PERIOD TIME  7980.0      133.00      2.2167     9.23612E-02 2.52871E-04
         TOTAL TIME  7980.0      133.00      2.2167     9.23612E-02 2.52871E-04
1

 SOLVING FOR HEAD 
     2 EXTERNAL ITERATIONS FOR TIME STEP  77 IN STRESS PERIOD    1

 MAXIMUM HEAD CHANGE FOR EACH ITERATION:

     HEAD CHANGE  LAY,ROW,COL      HEAD CHANGE  LAY,ROW,COL  
 ------------------------------------------------------------
    -2.020E-05 (  6,    1, 1000)  -2.389E-07 (  6,    1,  999)



 OUTPUT CONTROL FOR STRESS PERIOD    1   TIME STEP   77
    PRINT BUDGET
    SAVE HEAD FOR ALL LAYERS
 SOLVING FOR ZETA FOR LAYER     6 ZONE     2

     494 UPPER PART EQS.       495 LOWER PART EQS.    BAND WIDTH + 1 =    3
 STRESS PERIOD=  1 TIMESTEP= 77 LAYER=  6 ZONE=  2 ACTIVE CELLS=  989 NUMBER OF EQUATIONS=     989
 UBUDSV SAVING "      ZETASRF  1" ON UNIT 55 AT TIME STEP 77, STRESS PERIOD    1


                      VOLUMETRIC SWI ZONE BUDGET FOR ENTIRE MODEL
                     AT END OF TIME STEP   77 IN STRESS PERIOD   1
                                      ZONE     1
  -----------------------------------------------------------------------------------

        CUMULATIVE VOLUMES      L**3       RATES FOR THIS TIME STEP      L**3/T
        ------------------                 ------------------------

              IN:                                      IN:
              ---                                      ---
             BOUNDARIES =       1.5558E-08            BOUNDARIES =       1.5844E-07
          CONSTANT HEAD =       1.4321E-02         CONSTANT HEAD =           0.1561
            ZONE CHANGE =       1.0579E-03           ZONE CHANGE =       8.4743E-03
       ZONE CHG TIP/TOE =       1.7545E-05      ZONE CHG TIP/TOE =       2.9487E-05
            ZONE MIXING =           0.0000           ZONE MIXING =           0.0000

               TOTAL IN =       1.5397E-02              TOTAL IN =           0.1646

             OUT:                                     OUT:
             ----                                     ----
             BOUNDARIES =       1.5362E-02            BOUNDARIES =           0.1642
          CONSTANT HEAD =           0.0000         CONSTANT HEAD =           0.0000
            ZONE CHANGE =       3.4642E-05           ZONE CHANGE =       4.2852E-04
       ZONE CHG TIP/TOE =       1.8070E-07      ZONE CHG TIP/TOE =       2.4719E-06
            ZONE MIXING =           0.0000           ZONE MIXING =           0.0000

              TOTAL OUT =       1.5396E-02             TOTAL OUT =           0.1646

               IN - OUT =       5.0478E-07              IN - OUT =       1.3262E-06

    PERCENT DISCREPANCY =           0.00     PERCENT DISCREPANCY =           0.00



                      VOLUMETRIC SWI ZONE BUDGET FOR ENTIRE MODEL
                     AT END OF TIME STEP   77 IN STRESS PERIOD   1
                                      ZONE     2
  -----------------------------------------------------------------------------------

        CUMULATIVE VOLUMES      L**3       RATES FOR THIS TIME STEP      L**3/T
        ------------------                 ------------------------

              IN:                                      IN:
              ---                                      ---
             BOUNDARIES =       6.0468E-14            BOUNDARIES =       6.3101E-13
          CONSTANT HEAD =       9.7236E-04         CONSTANT HEAD =       8.0519E-03
            ZONE CHANGE =       3.2914E-05           ZONE CHANGE =       4.1121E-04
       ZONE CHG TIP/TOE =       1.8070E-07      ZONE CHG TIP/TOE =       2.4719E-06
            ZONE MIXING =           0.0000           ZONE MIXING =           0.0000

               TOTAL IN =       1.0054E-03              TOTAL IN =       8.4656E-03

             OUT:                                     OUT:
             ----                                     ----
             BOUNDARIES =       6.0642E-14            BOUNDARIES =       6.8778E-13
          CONSTANT HEAD =           0.0000         CONSTANT HEAD =           0.0000
            ZONE CHANGE =       9.9011E-04           ZONE CHANGE =       8.4545E-03
       ZONE CHG TIP/TOE =       1.5816E-05      ZONE CHG TIP/TOE =       1.2175E-05
            ZONE MIXING =           0.0000           ZONE MIXING =           0.0000

              TOTAL OUT =       1.0059E-03             TOTAL OUT =       8.4667E-03

               IN - OUT =      -4.7591E-07              IN - OUT =      -1.0682E-06

    PERCENT DISCREPANCY =          -0.05     PERCENT DISCREPANCY =          -0.01


 HEAD WILL BE SAVED ON UNIT   51 AT END OF TIME STEP   77, STRESS PERIOD    1
1
  VOLUMETRIC BUDGET FOR ENTIRE MODEL AT END OF TIME STEP   77, STRESS PERIOD   1
  ------------------------------------------------------------------------------

     CUMULATIVE VOLUMES      L**3       RATES FOR THIS TIME STEP      L**3/T
     ------------------                 ------------------------

           IN:                                      IN:
           ---                                      ---
             STORAGE =       6.7763E-05               STORAGE =       1.9482E-05
       CONSTANT HEAD =       1.5294E-02         CONSTANT HEAD =           0.1641
               WELLS =           0.0000                 WELLS =           0.0000
          SWIADDTOCH =           0.0000            SWIADDTOCH =           0.0000

            TOTAL IN =       1.5362E-02              TOTAL IN =           0.1642

          OUT:                                     OUT:
          ----                                     ----
             STORAGE =       3.3251E-10               STORAGE =       1.3338E-09
       CONSTANT HEAD =           0.0000         CONSTANT HEAD =           0.0000
               WELLS =       1.5362E-02                 WELLS =           0.1642
          SWIADDTOCH =       2.9645E-10            SWIADDTOCH =           0.0000

           TOTAL OUT =       1.5362E-02             TOTAL OUT =           0.1642

            IN - OUT =      -1.1176E-08              IN - OUT =      -2.9802E-08

 PERCENT DISCREPANCY =          -0.00     PERCENT DISCREPANCY =          -0.00






         TIME SUMMARY AT END OF TIME STEP   77 IN STRESS PERIOD    1
                    SECONDS     MINUTES      HOURS       DAYS        YEARS
                    -----------------------------------------------------------
   TIME STEP LENGTH  105.00      1.7500     2.91667E-02 1.21528E-03 3.32726E-06
 STRESS PERIOD TIME  8085.0      134.75      2.2458     9.35765E-02 2.56198E-04
         TOTAL TIME  8085.0      134.75      2.2458     9.35765E-02 2.56198E-04
1

 SOLVING FOR HEAD 
     2 EXTERNAL ITERATIONS FOR TIME STEP  78 IN STRESS PERIOD    1

 MAXIMUM HEAD CHANGE FOR EACH ITERATION:

     HEAD CHANGE  LAY,ROW,COL      HEAD CHANGE  LAY,ROW,COL  
 ------------------------------------------------------------
    -2.020E-05 (  6,    1, 1000)  -2.387E-07 (  6,    1,  999)



 OUTPUT CONTROL FOR STRESS PERIOD    1   TIME STEP   78
    PRINT BUDGET
    SAVE HEAD FOR ALL LAYERS
 SOLVING FOR ZETA FOR LAYER     6 ZONE     2
 STRESS PERIOD=  1 TIMESTEP= 78 LAYER=  6 ZONE=  2 ACTIVE CELLS=  989 NUMBER OF EQUATIONS=     989
 UBUDSV SAVING "      ZETASRF  1" ON UNIT 55 AT TIME STEP 78, STRESS PERIOD    1


                      VOLUMETRIC SWI ZONE BUDGET FOR ENTIRE MODEL
                     AT END OF TIME STEP   78 IN STRESS PERIOD   1
                                      ZONE     1
  -----------------------------------------------------------------------------------

        CUMULATIVE VOLUMES      L**3       RATES FOR THIS TIME STEP      L**3/T
        ------------------                 ------------------------

              IN:                                      IN:
              ---                                      ---
             BOUNDARIES =       1.5760E-08            BOUNDARIES =       1.6669E-07
          CONSTANT HEAD =       1.4511E-02         CONSTANT HEAD =           0.1561
            ZONE CHANGE =       1.0680E-03           ZONE CHANGE =       8.3380E-03
       ZONE CHG TIP/TOE =       1.7586E-05      ZONE CHG TIP/TOE =       3.4471E-05
            ZONE MIXING =           0.0000           ZONE MIXING =           0.0000

               TOTAL IN =       1.5597E-02              TOTAL IN =           0.1645

             OUT:                                     OUT:
             ----                                     ----
             BOUNDARIES =       1.5561E-02            BOUNDARIES =           0.1642
          CONSTANT HEAD =           0.0000         CONSTANT HEAD =           0.0000
            ZONE CHANGE =       3.5065E-05           ZONE CHANGE =       3.4822E-04
       ZONE CHG TIP/TOE =       1.8383E-07      ZONE CHG TIP/TOE =       2.5774E-06
            ZONE MIXING =           0.0000           ZONE MIXING =           0.0000

              TOTAL OUT =       1.5596E-02             TOTAL OUT =           0.1645

               IN - OUT =       5.0943E-07              IN - OUT =       3.4124E-06

    PERCENT DISCREPANCY =           0.00     PERCENT DISCREPANCY =           0.00



                      VOLUMETRIC SWI ZONE BUDGET FOR ENTIRE MODEL
                     AT END OF TIME STEP   78 IN STRESS PERIOD   1
                                      ZONE     2
  -----------------------------------------------------------------------------------

        CUMULATIVE VOLUMES      L**3       RATES FOR THIS TIME STEP      L**3/T
        ------------------                 ------------------------

              IN:                                      IN:
              ---                                      ---
             BOUNDARIES =       6.1290E-14            BOUNDARIES =       6.7710E-13
          CONSTANT HEAD =       9.8208E-04         CONSTANT HEAD =       7.9987E-03
            ZONE CHANGE =       3.3313E-05           ZONE CHANGE =       3.2846E-04
       ZONE CHG TIP/TOE =       1.8383E-07      ZONE CHG TIP/TOE =       2.5774E-06
            ZONE MIXING =           0.0000           ZONE MIXING =           0.0000

               TOTAL IN =       1.0156E-03              TOTAL IN =       8.3298E-03

             OUT:                                     OUT:
             ----                                     ----
             BOUNDARIES =       6.1406E-14            BOUNDARIES =       6.2845E-13
          CONSTANT HEAD =           0.0000         CONSTANT HEAD =           0.0000
            ZONE CHANGE =       1.0002E-03           ZONE CHANGE =       8.3182E-03
       ZONE CHG TIP/TOE =       1.5834E-05      ZONE CHG TIP/TOE =       1.4705E-05
            ZONE MIXING =           0.0000           ZONE MIXING =           0.0000

              TOTAL OUT =       1.0161E-03             TOTAL OUT =       8.3329E-03

               IN - OUT =      -4.7963E-07              IN - OUT =      -3.1749E-06

    PERCENT DISCREPANCY =          -0.05     PERCENT DISCREPANCY =          -0.04


 HEAD WILL BE SAVED ON UNIT   51 AT END OF TIME STEP   78, STRESS PERIOD    1
1
  VOLUMETRIC BUDGET FOR ENTIRE MODEL AT END OF TIME STEP   78, STRESS PERIOD   1
  ------------------------------------------------------------------------------

     CUMULATIVE VOLUMES      L**3       RATES FOR THIS TIME STEP      L**3/T
     ------------------                 ------------------------

           IN:                                      IN:
           ---                                      ---
             STORAGE =       6.7787E-05               STORAGE =       1.9494E-05
       CONSTANT HEAD =       1.5493E-02         CONSTANT HEAD =           0.1641
               WELLS =           0.0000                 WELLS =           0.0000
          SWIADDTOCH =           0.0000            SWIADDTOCH =           0.0000

            TOTAL IN =       1.5561E-02              TOTAL IN =           0.1642

          OUT:                                     OUT:
          ----                                     ----
             STORAGE =       3.3525E-10               STORAGE =       2.2614E-09
       CONSTANT HEAD =           0.0000         CONSTANT HEAD =           0.0000
               WELLS =       1.5561E-02                 WELLS =           0.1642
          SWIADDTOCH =       2.9645E-10            SWIADDTOCH =           0.0000

           TOTAL OUT =       1.5561E-02             TOTAL OUT =           0.1642

            IN - OUT =      -1.1176E-08              IN - OUT =      -2.9802E-08

 PERCENT DISCREPANCY =          -0.00     PERCENT DISCREPANCY =          -0.00






         TIME SUMMARY AT END OF TIME STEP   78 IN STRESS PERIOD    1
                    SECONDS     MINUTES      HOURS       DAYS        YEARS
                    -----------------------------------------------------------
   TIME STEP LENGTH  105.00      1.7500     2.91667E-02 1.21528E-03 3.32726E-06
 STRESS PERIOD TIME  8190.0      136.50      2.2750     9.47918E-02 2.59526E-04
         TOTAL TIME  8190.0      136.50      2.2750     9.47918E-02 2.59526E-04
1

 SOLVING FOR HEAD 
     2 EXTERNAL ITERATIONS FOR TIME STEP  79 IN STRESS PERIOD    1

 MAXIMUM HEAD CHANGE FOR EACH ITERATION:

     HEAD CHANGE  LAY,ROW,COL      HEAD CHANGE  LAY,ROW,COL  
 ------------------------------------------------------------
    -2.019E-05 (  6,    1, 1000)  -2.384E-07 (  6,    1,  999)



 OUTPUT CONTROL FOR STRESS PERIOD    1   TIME STEP   79
    PRINT BUDGET
    SAVE HEAD FOR ALL LAYERS
 SOLVING FOR ZETA FOR LAYER     6 ZONE     2

     496 UPPER PART EQS.       493 LOWER PART EQS.    BAND WIDTH + 1 =    5
 STRESS PERIOD=  1 TIMESTEP= 79 LAYER=  6 ZONE=  2 ACTIVE CELLS=  989 NUMBER OF EQUATIONS=     989
 UBUDSV SAVING "      ZETASRF  1" ON UNIT 55 AT TIME STEP 79, STRESS PERIOD    1


                      VOLUMETRIC SWI ZONE BUDGET FOR ENTIRE MODEL
                     AT END OF TIME STEP   79 IN STRESS PERIOD   1
                                      ZONE     1
  -----------------------------------------------------------------------------------

        CUMULATIVE VOLUMES      L**3       RATES FOR THIS TIME STEP      L**3/T
        ------------------                 ------------------------

              IN:                                      IN:
              ---                                      ---
             BOUNDARIES =       1.5970E-08            BOUNDARIES =       1.7258E-07
          CONSTANT HEAD =       1.4701E-02         CONSTANT HEAD =           0.1562
            ZONE CHANGE =       1.0780E-03           ZONE CHANGE =       8.2399E-03
       ZONE CHG TIP/TOE =       1.7629E-05      ZONE CHG TIP/TOE =       3.4679E-05
            ZONE MIXING =           0.0000           ZONE MIXING =           0.0000

               TOTAL IN =       1.5797E-02              TOTAL IN =           0.1645

             OUT:                                     OUT:
             ----                                     ----
             BOUNDARIES =       1.5761E-02            BOUNDARIES =           0.1642
          CONSTANT HEAD =           0.0000         CONSTANT HEAD =           0.0000
            ZONE CHANGE =       3.5440E-05           ZONE CHANGE =       3.0789E-04
       ZONE CHG TIP/TOE =       1.8568E-07      ZONE CHG TIP/TOE =       1.5203E-06
            ZONE MIXING =           0.0000           ZONE MIXING =           0.0000

              TOTAL OUT =       1.5796E-02             TOTAL OUT =           0.1645

               IN - OUT =       5.0850E-07              IN - OUT =       2.6822E-07

    PERCENT DISCREPANCY =           0.00     PERCENT DISCREPANCY =           0.00



                      VOLUMETRIC SWI ZONE BUDGET FOR ENTIRE MODEL
                     AT END OF TIME STEP   79 IN STRESS PERIOD   1
                                      ZONE     2
  -----------------------------------------------------------------------------------

        CUMULATIVE VOLUMES      L**3       RATES FOR THIS TIME STEP      L**3/T
        ------------------                 ------------------------

              IN:                                      IN:
              ---                                      ---
             BOUNDARIES =       6.2111E-14            BOUNDARIES =       6.7546E-13
          CONSTANT HEAD =       9.9173E-04         CONSTANT HEAD =       7.9454E-03
            ZONE CHANGE =       3.3666E-05           ZONE CHANGE =       2.9062E-04
       ZONE CHG TIP/TOE =       1.8568E-07      ZONE CHG TIP/TOE =       1.5203E-06
            ZONE MIXING =           0.0000           ZONE MIXING =           0.0000

               TOTAL IN =       1.0256E-03              TOTAL IN =       8.2376E-03

             OUT:                                     OUT:
             ----                                     ----
             BOUNDARIES =       6.2184E-14            BOUNDARIES =       6.4012E-13
          CONSTANT HEAD =           0.0000         CONSTANT HEAD =           0.0000
            ZONE CHANGE =       1.0102E-03           ZONE CHANGE =       8.2202E-03
       ZONE CHG TIP/TOE =       1.5855E-05      ZONE CHG TIP/TOE =       1.7402E-05
            ZONE MIXING =           0.0000           ZONE MIXING =           0.0000

              TOTAL OUT =       1.0261E-03             TOTAL OUT =       8.2376E-03

               IN - OUT =      -4.7963E-07              IN - OUT =       2.9802E-08

    PERCENT DISCREPANCY =          -0.05     PERCENT DISCREPANCY =           0.00


 HEAD WILL BE SAVED ON UNIT   51 AT END OF TIME STEP   79, STRESS PERIOD    1
1
  VOLUMETRIC BUDGET FOR ENTIRE MODEL AT END OF TIME STEP   79, STRESS PERIOD   1
  ------------------------------------------------------------------------------

     CUMULATIVE VOLUMES      L**3       RATES FOR THIS TIME STEP      L**3/T
     ------------------                 ------------------------

           IN:                                      IN:
           ---                                      ---
             STORAGE =       6.7811E-05               STORAGE =       1.9433E-05
       CONSTANT HEAD =       1.5693E-02         CONSTANT HEAD =           0.1641
               WELLS =           0.0000                 WELLS =           0.0000
          SWIADDTOCH =           0.0000            SWIADDTOCH =           0.0000

            TOTAL IN =       1.5761E-02              TOTAL IN =           0.1642

          OUT:                                     OUT:
          ----                                     ----
             STORAGE =       3.3800E-10               STORAGE =       2.2568E-09
       CONSTANT HEAD =           0.0000         CONSTANT HEAD =           0.0000
               WELLS =       1.5761E-02                 WELLS =           0.1642
          SWIADDTOCH =       3.4153E-10            SWIADDTOCH =       3.7096E-08

           TOTAL OUT =       1.5761E-02             TOTAL OUT =           0.1642

            IN - OUT =      -9.3132E-09              IN - OUT =      -4.4703E-08

 PERCENT DISCREPANCY =          -0.00     PERCENT DISCREPANCY =          -0.00






         TIME SUMMARY AT END OF TIME STEP   79 IN STRESS PERIOD    1
                    SECONDS     MINUTES      HOURS       DAYS        YEARS
                    -----------------------------------------------------------
   TIME STEP LENGTH  105.00      1.7500     2.91667E-02 1.21528E-03 3.32726E-06
 STRESS PERIOD TIME  8295.0      138.25      2.3042     9.60071E-02 2.62853E-04
         TOTAL TIME  8295.0      138.25      2.3042     9.60071E-02 2.62853E-04
1

 SOLVING FOR HEAD 
     2 EXTERNAL ITERATIONS FOR TIME STEP  80 IN STRESS PERIOD    1

 MAXIMUM HEAD CHANGE FOR EACH ITERATION:

     HEAD CHANGE  LAY,ROW,COL      HEAD CHANGE  LAY,ROW,COL  
 ------------------------------------------------------------
    -2.018E-05 (  6,    1, 1000)  -2.377E-07 (  6,    1,  999)



 OUTPUT CONTROL FOR STRESS PERIOD    1   TIME STEP   80
    PRINT BUDGET
    SAVE HEAD FOR ALL LAYERS
 SOLVING FOR ZETA FOR LAYER     6 ZONE     2

     493 UPPER PART EQS.       496 LOWER PART EQS.    BAND WIDTH + 1 =    4
 STRESS PERIOD=  1 TIMESTEP= 80 LAYER=  6 ZONE=  2 ACTIVE CELLS=  989 NUMBER OF EQUATIONS=     989
 UBUDSV SAVING "      ZETASRF  1" ON UNIT 55 AT TIME STEP 80, STRESS PERIOD    1


                      VOLUMETRIC SWI ZONE BUDGET FOR ENTIRE MODEL
                     AT END OF TIME STEP   80 IN STRESS PERIOD   1
                                      ZONE     1
  -----------------------------------------------------------------------------------

        CUMULATIVE VOLUMES      L**3       RATES FOR THIS TIME STEP      L**3/T
        ------------------                 ------------------------

              IN:                                      IN:
              ---                                      ---
             BOUNDARIES =       1.6169E-08            BOUNDARIES =       1.6352E-07
          CONSTANT HEAD =       1.4891E-02         CONSTANT HEAD =           0.1562
            ZONE CHANGE =       1.0880E-03           ZONE CHANGE =       8.1696E-03
       ZONE CHG TIP/TOE =       1.7667E-05      ZONE CHG TIP/TOE =       3.2033E-05
            ZONE MIXING =           0.0000           ZONE MIXING =           0.0000

               TOTAL IN =       1.5997E-02              TOTAL IN =           0.1645

             OUT:                                     OUT:
             ----                                     ----
             BOUNDARIES =       1.5960E-02            BOUNDARIES =           0.1642
          CONSTANT HEAD =           0.0000         CONSTANT HEAD =           0.0000
            ZONE CHANGE =       3.5793E-05           ZONE CHANGE =       2.9090E-04
       ZONE CHG TIP/TOE =       1.8648E-07      ZONE CHG TIP/TOE =       6.5982E-07
            ZONE MIXING =           0.0000           ZONE MIXING =           0.0000

              TOTAL OUT =       1.5996E-02             TOTAL OUT =           0.1645

               IN - OUT =       5.0664E-07              IN - OUT =      -1.4901E-06

    PERCENT DISCREPANCY =           0.00     PERCENT DISCREPANCY =          -0.00



                      VOLUMETRIC SWI ZONE BUDGET FOR ENTIRE MODEL
                     AT END OF TIME STEP   80 IN STRESS PERIOD   1
                                      ZONE     2
  -----------------------------------------------------------------------------------

        CUMULATIVE VOLUMES      L**3       RATES FOR THIS TIME STEP      L**3/T
        ------------------                 ------------------------

              IN:                                      IN:
              ---                                      ---
             BOUNDARIES =       6.2932E-14            BOUNDARIES =       6.7517E-13
          CONSTANT HEAD =       1.0013E-03         CONSTANT HEAD =       7.8922E-03
            ZONE CHANGE =       3.4001E-05           ZONE CHANGE =       2.7555E-04
       ZONE CHG TIP/TOE =       1.8648E-07      ZONE CHG TIP/TOE =       6.5982E-07
            ZONE MIXING =           0.0000           ZONE MIXING =           0.0000

               TOTAL IN =       1.0355E-03              TOTAL IN =       8.1684E-03

             OUT:                                     OUT:
             ----                                     ----
             BOUNDARIES =       6.2950E-14            BOUNDARIES =       6.3064E-13
          CONSTANT HEAD =           0.0000         CONSTANT HEAD =           0.0000
            ZONE CHANGE =       1.0201E-03           ZONE CHANGE =       8.1499E-03
       ZONE CHG TIP/TOE =       1.5875E-05      ZONE CHG TIP/TOE =       1.6676E-05
            ZONE MIXING =           0.0000           ZONE MIXING =           0.0000

              TOTAL OUT =       1.0360E-03             TOTAL OUT =       8.1666E-03

               IN - OUT =      -4.7742E-07              IN - OUT =       1.7788E-06

    PERCENT DISCREPANCY =          -0.05     PERCENT DISCREPANCY =           0.02


 HEAD WILL BE SAVED ON UNIT   51 AT END OF TIME STEP   80, STRESS PERIOD    1
1
  VOLUMETRIC BUDGET FOR ENTIRE MODEL AT END OF TIME STEP   80, STRESS PERIOD   1
  ------------------------------------------------------------------------------

     CUMULATIVE VOLUMES      L**3       RATES FOR THIS TIME STEP      L**3/T
     ------------------                 ------------------------

           IN:                                      IN:
           ---                                      ---
             STORAGE =       6.7834E-05               STORAGE =       1.9400E-05
       CONSTANT HEAD =       1.5892E-02         CONSTANT HEAD =           0.1641
               WELLS =           0.0000                 WELLS =           0.0000
          SWIADDTOCH =           0.0000            SWIADDTOCH =           0.0000

            TOTAL IN =       1.5960E-02              TOTAL IN =           0.1642

          OUT:                                     OUT:
          ----                                     ----
             STORAGE =       3.4526E-10               STORAGE =       5.9777E-09
       CONSTANT HEAD =           0.0000         CONSTANT HEAD =           0.0000
               WELLS =       1.5960E-02                 WELLS =           0.1642
          SWIADDTOCH =       3.4153E-10            SWIADDTOCH =           0.0000

           TOTAL OUT =       1.5960E-02             TOTAL OUT =           0.1642

            IN - OUT =      -1.1176E-08              IN - OUT =      -1.4901E-08

 PERCENT DISCREPANCY =          -0.00     PERCENT DISCREPANCY =          -0.00






         TIME SUMMARY AT END OF TIME STEP   80 IN STRESS PERIOD    1
                    SECONDS     MINUTES      HOURS       DAYS        YEARS
                    -----------------------------------------------------------
   TIME STEP LENGTH  105.00      1.7500     2.91667E-02 1.21528E-03 3.32726E-06
 STRESS PERIOD TIME  8400.0      140.00      2.3333     9.72224E-02 2.66180E-04
         TOTAL TIME  8400.0      140.00      2.3333     9.72224E-02 2.66180E-04
1

 SOLVING FOR HEAD 
     2 EXTERNAL ITERATIONS FOR TIME STEP  81 IN STRESS PERIOD    1

 MAXIMUM HEAD CHANGE FOR EACH ITERATION:

     HEAD CHANGE  LAY,ROW,COL      HEAD CHANGE  LAY,ROW,COL  
 ------------------------------------------------------------
    -2.018E-05 (  6,    1, 1000)  -2.376E-07 (  6,    1,  999)



 OUTPUT CONTROL FOR STRESS PERIOD    1   TIME STEP   81
    PRINT BUDGET
    SAVE HEAD FOR ALL LAYERS
 SOLVING FOR ZETA FOR LAYER     6 ZONE     2

     495 UPPER PART EQS.       494 LOWER PART EQS.    BAND WIDTH + 1 =    3
 STRESS PERIOD=  1 TIMESTEP= 81 LAYER=  6 ZONE=  2 ACTIVE CELLS=  989 NUMBER OF EQUATIONS=     989
 UBUDSV SAVING "      ZETASRF  1" ON UNIT 55 AT TIME STEP 81, STRESS PERIOD    1


                      VOLUMETRIC SWI ZONE BUDGET FOR ENTIRE MODEL
                     AT END OF TIME STEP   81 IN STRESS PERIOD   1
                                      ZONE     1
  -----------------------------------------------------------------------------------

        CUMULATIVE VOLUMES      L**3       RATES FOR THIS TIME STEP      L**3/T
        ------------------                 ------------------------

              IN:                                      IN:
              ---                                      ---
             BOUNDARIES =       1.6364E-08            BOUNDARIES =       1.6069E-07
          CONSTANT HEAD =       1.5081E-02         CONSTANT HEAD =           0.1563
            ZONE CHANGE =       1.0978E-03           ZONE CHANGE =       8.1110E-03
       ZONE CHG TIP/TOE =       1.7708E-05      ZONE CHG TIP/TOE =       3.3436E-05
            ZONE MIXING =           0.0000           ZONE MIXING =           0.0000

               TOTAL IN =       1.6196E-02              TOTAL IN =           0.1644

             OUT:                                     OUT:
             ----                                     ----
             BOUNDARIES =       1.6160E-02            BOUNDARIES =           0.1642
          CONSTANT HEAD =           0.0000         CONSTANT HEAD =           0.0000
            ZONE CHANGE =       3.6139E-05           ZONE CHANGE =       2.8471E-04
       ZONE CHG TIP/TOE =       1.8921E-07      ZONE CHG TIP/TOE =       2.2425E-06
            ZONE MIXING =           0.0000           ZONE MIXING =           0.0000

              TOTAL OUT =       1.6196E-02             TOTAL OUT =           0.1644

               IN - OUT =       5.0478E-07              IN - OUT =      -9.0897E-07

    PERCENT DISCREPANCY =           0.00     PERCENT DISCREPANCY =          -0.00



                      VOLUMETRIC SWI ZONE BUDGET FOR ENTIRE MODEL
                     AT END OF TIME STEP   81 IN STRESS PERIOD   1
                                      ZONE     2
  -----------------------------------------------------------------------------------

        CUMULATIVE VOLUMES      L**3       RATES FOR THIS TIME STEP      L**3/T
        ------------------                 ------------------------

              IN:                                      IN:
              ---                                      ---
             BOUNDARIES =       6.3639E-14            BOUNDARIES =       5.8196E-13
          CONSTANT HEAD =       1.0109E-03         CONSTANT HEAD =       7.8390E-03
            ZONE CHANGE =       3.4327E-05           ZONE CHANGE =       2.6881E-04
       ZONE CHG TIP/TOE =       1.8921E-07      ZONE CHG TIP/TOE =       2.2425E-06
            ZONE MIXING =           0.0000           ZONE MIXING =           0.0000

               TOTAL IN =       1.0454E-03              TOTAL IN =       8.1101E-03

             OUT:                                     OUT:
             ----                                     ----
             BOUNDARIES =       6.3783E-14            BOUNDARIES =       6.8516E-13
          CONSTANT HEAD =           0.0000         CONSTANT HEAD =           0.0000
            ZONE CHANGE =       1.0299E-03           ZONE CHANGE =       8.0913E-03
       ZONE CHG TIP/TOE =       1.5896E-05      ZONE CHG TIP/TOE =       1.7537E-05
            ZONE MIXING =           0.0000           ZONE MIXING =           0.0000

              TOTAL OUT =       1.0458E-03             TOTAL OUT =       8.1089E-03

               IN - OUT =      -4.7591E-07              IN - OUT =       1.1884E-06

    PERCENT DISCREPANCY =          -0.05     PERCENT DISCREPANCY =           0.01


 HEAD WILL BE SAVED ON UNIT   51 AT END OF TIME STEP   81, STRESS PERIOD    1
1
  VOLUMETRIC BUDGET FOR ENTIRE MODEL AT END OF TIME STEP   81, STRESS PERIOD   1
  ------------------------------------------------------------------------------

     CUMULATIVE VOLUMES      L**3       RATES FOR THIS TIME STEP      L**3/T
     ------------------                 ------------------------

           IN:                                      IN:
           ---                                      ---
             STORAGE =       6.7858E-05               STORAGE =       1.9369E-05
       CONSTANT HEAD =       1.6092E-02         CONSTANT HEAD =           0.1641
               WELLS =           0.0000                 WELLS =           0.0000
          SWIADDTOCH =           0.0000            SWIADDTOCH =           0.0000

            TOTAL IN =       1.6160E-02              TOTAL IN =           0.1642

          OUT:                                     OUT:
          ----                                     ----
             STORAGE =       3.5252E-10               STORAGE =       5.9729E-09
       CONSTANT HEAD =           0.0000         CONSTANT HEAD =           0.0000
               WELLS =       1.6160E-02                 WELLS =           0.1642
          SWIADDTOCH =       3.4153E-10            SWIADDTOCH =           0.0000

           TOTAL OUT =       1.6160E-02             TOTAL OUT =           0.1642

            IN - OUT =      -1.1176E-08              IN - OUT =           0.0000

 PERCENT DISCREPANCY =          -0.00     PERCENT DISCREPANCY =           0.00






         TIME SUMMARY AT END OF TIME STEP   81 IN STRESS PERIOD    1
                    SECONDS     MINUTES      HOURS       DAYS        YEARS
                    -----------------------------------------------------------
   TIME STEP LENGTH  105.00      1.7500     2.91667E-02 1.21528E-03 3.32726E-06
 STRESS PERIOD TIME  8505.0      141.75      2.3625     9.84376E-02 2.69508E-04
         TOTAL TIME  8505.0      141.75      2.3625     9.84376E-02 2.69508E-04
1

 SOLVING FOR HEAD 
     2 EXTERNAL ITERATIONS FOR TIME STEP  82 IN STRESS PERIOD    1

 MAXIMUM HEAD CHANGE FOR EACH ITERATION:

     HEAD CHANGE  LAY,ROW,COL      HEAD CHANGE  LAY,ROW,COL  
 ------------------------------------------------------------
    -2.017E-05 (  6,    1, 1000)  -2.369E-07 (  6,    1, 1000)



 OUTPUT CONTROL FOR STRESS PERIOD    1   TIME STEP   82
    PRINT BUDGET
    SAVE HEAD FOR ALL LAYERS
 SOLVING FOR ZETA FOR LAYER     6 ZONE     2

     494 UPPER PART EQS.       495 LOWER PART EQS.    BAND WIDTH + 1 =    2
 STRESS PERIOD=  1 TIMESTEP= 82 LAYER=  6 ZONE=  2 ACTIVE CELLS=  989 NUMBER OF EQUATIONS=     989
 UBUDSV SAVING "      ZETASRF  1" ON UNIT 55 AT TIME STEP 82, STRESS PERIOD    1


                      VOLUMETRIC SWI ZONE BUDGET FOR ENTIRE MODEL
                     AT END OF TIME STEP   82 IN STRESS PERIOD   1
                                      ZONE     1
  -----------------------------------------------------------------------------------

        CUMULATIVE VOLUMES      L**3       RATES FOR THIS TIME STEP      L**3/T
        ------------------                 ------------------------

              IN:                                      IN:
              ---                                      ---
             BOUNDARIES =       1.6553E-08            BOUNDARIES =       1.5540E-07
          CONSTANT HEAD =       1.5271E-02         CONSTANT HEAD =           0.1564
            ZONE CHANGE =       1.1076E-03           ZONE CHANGE =       8.0575E-03
       ZONE CHG TIP/TOE =       1.7749E-05      ZONE CHG TIP/TOE =       3.4030E-05
            ZONE MIXING =           0.0000           ZONE MIXING =           0.0000

               TOTAL IN =       1.6396E-02              TOTAL IN =           0.1644

             OUT:                                     OUT:
             ----                                     ----
             BOUNDARIES =       1.6359E-02            BOUNDARIES =           0.1642
          CONSTANT HEAD =           0.0000         CONSTANT HEAD =           0.0000
            ZONE CHANGE =       3.6484E-05           ZONE CHANGE =       2.8396E-04
       ZONE CHG TIP/TOE =       1.9006E-07      ZONE CHG TIP/TOE =       7.0269E-07
            ZONE MIXING =           0.0000           ZONE MIXING =           0.0000

              TOTAL OUT =       1.6396E-02             TOTAL OUT =           0.1644

               IN - OUT =       5.0850E-07              IN - OUT =       1.7434E-06

    PERCENT DISCREPANCY =           0.00     PERCENT DISCREPANCY =           0.00



                      VOLUMETRIC SWI ZONE BUDGET FOR ENTIRE MODEL
                     AT END OF TIME STEP   82 IN STRESS PERIOD   1
                                      ZONE     2
  -----------------------------------------------------------------------------------

        CUMULATIVE VOLUMES      L**3       RATES FOR THIS TIME STEP      L**3/T
        ------------------                 ------------------------

              IN:                                      IN:
              ---                                      ---
             BOUNDARIES =       6.4485E-14            BOUNDARIES =       6.9631E-13
          CONSTANT HEAD =       1.0203E-03         CONSTANT HEAD =       7.7859E-03
            ZONE CHANGE =       3.4650E-05           ZONE CHANGE =       2.6576E-04
       ZONE CHG TIP/TOE =       1.9006E-07      ZONE CHG TIP/TOE =       7.0269E-07
            ZONE MIXING =           0.0000           ZONE MIXING =           0.0000

               TOTAL IN =       1.0552E-03              TOTAL IN =       8.0523E-03

             OUT:                                     OUT:
             ----                                     ----
             BOUNDARIES =       6.4586E-14            BOUNDARIES =       6.6094E-13
          CONSTANT HEAD =           0.0000         CONSTANT HEAD =           0.0000
            ZONE CHANGE =       1.0397E-03           ZONE CHANGE =       8.0379E-03
       ZONE CHG TIP/TOE =       1.5916E-05      ZONE CHG TIP/TOE =       1.5823E-05
            ZONE MIXING =           0.0000           ZONE MIXING =           0.0000

              TOTAL OUT =       1.0556E-03             TOTAL OUT =       8.0538E-03

               IN - OUT =      -4.7765E-07              IN - OUT =      -1.4538E-06

    PERCENT DISCREPANCY =          -0.05     PERCENT DISCREPANCY =          -0.02


 HEAD WILL BE SAVED ON UNIT   51 AT END OF TIME STEP   82, STRESS PERIOD    1
1
  VOLUMETRIC BUDGET FOR ENTIRE MODEL AT END OF TIME STEP   82, STRESS PERIOD   1
  ------------------------------------------------------------------------------

     CUMULATIVE VOLUMES      L**3       RATES FOR THIS TIME STEP      L**3/T
     ------------------                 ------------------------

           IN:                                      IN:
           ---                                      ---
             STORAGE =       6.7881E-05               STORAGE =       1.9280E-05
       CONSTANT HEAD =       1.6291E-02         CONSTANT HEAD =           0.1641
               WELLS =           0.0000                 WELLS =           0.0000
          SWIADDTOCH =           0.0000            SWIADDTOCH =           0.0000

            TOTAL IN =       1.6359E-02              TOTAL IN =           0.1642

          OUT:                                     OUT:
          ----                                     ----
             STORAGE =       3.5638E-10               STORAGE =       3.1750E-09
       CONSTANT HEAD =           0.0000         CONSTANT HEAD =           0.0000
               WELLS =       1.6359E-02                 WELLS =           0.1642
          SWIADDTOCH =       3.4153E-10            SWIADDTOCH =           0.0000

           TOTAL OUT =       1.6359E-02             TOTAL OUT =           0.1642

            IN - OUT =      -1.3039E-08              IN - OUT =      -1.4901E-08

 PERCENT DISCREPANCY =          -0.00     PERCENT DISCREPANCY =          -0.00






         TIME SUMMARY AT END OF TIME STEP   82 IN STRESS PERIOD    1
                    SECONDS     MINUTES      HOURS       DAYS        YEARS
                    -----------------------------------------------------------
   TIME STEP LENGTH  105.00      1.7500     2.91667E-02 1.21528E-03 3.32726E-06
 STRESS PERIOD TIME  8610.0      143.50      2.3917     9.96529E-02 2.72835E-04
         TOTAL TIME  8610.0      143.50      2.3917     9.96529E-02 2.72835E-04
1

 SOLVING FOR HEAD 
     2 EXTERNAL ITERATIONS FOR TIME STEP  83 IN STRESS PERIOD    1

 MAXIMUM HEAD CHANGE FOR EACH ITERATION:

     HEAD CHANGE  LAY,ROW,COL      HEAD CHANGE  LAY,ROW,COL  
 ------------------------------------------------------------
    -2.015E-05 (  6,    1, 1000)  -2.362E-07 (  6,    1, 1000)



 OUTPUT CONTROL FOR STRESS PERIOD    1   TIME STEP   83
    PRINT BUDGET
    SAVE HEAD FOR ALL LAYERS
 SOLVING FOR ZETA FOR LAYER     6 ZONE     2

     493 UPPER PART EQS.       495 LOWER PART EQS.    BAND WIDTH + 1 =    4
 STRESS PERIOD=  1 TIMESTEP= 83 LAYER=  6 ZONE=  2 ACTIVE CELLS=  988 NUMBER OF EQUATIONS=     988
 UBUDSV SAVING "      ZETASRF  1" ON UNIT 55 AT TIME STEP 83, STRESS PERIOD    1


                      VOLUMETRIC SWI ZONE BUDGET FOR ENTIRE MODEL
                     AT END OF TIME STEP   83 IN STRESS PERIOD   1
                                      ZONE     1
  -----------------------------------------------------------------------------------

        CUMULATIVE VOLUMES      L**3       RATES FOR THIS TIME STEP      L**3/T
        ------------------                 ------------------------

              IN:                                      IN:
              ---                                      ---
             BOUNDARIES =       1.6740E-08            BOUNDARIES =       1.5396E-07
          CONSTANT HEAD =       1.5461E-02         CONSTANT HEAD =           0.1564
            ZONE CHANGE =       1.1173E-03           ZONE CHANGE =       7.9881E-03
       ZONE CHG TIP/TOE =       1.7777E-05      ZONE CHG TIP/TOE =       2.2356E-05
            ZONE MIXING =           0.0000           ZONE MIXING =           0.0000

               TOTAL IN =       1.6596E-02              TOTAL IN =           0.1644

             OUT:                                     OUT:
             ----                                     ----
             BOUNDARIES =       1.6559E-02            BOUNDARIES =           0.1642
          CONSTANT HEAD =           0.0000         CONSTANT HEAD =           0.0000
            ZONE CHANGE =       3.6801E-05           ZONE CHANGE =       2.6074E-04
       ZONE CHG TIP/TOE =       1.9214E-07      ZONE CHG TIP/TOE =       1.7100E-06
            ZONE MIXING =           0.0000           ZONE MIXING =           0.0000

              TOTAL OUT =       1.6596E-02             TOTAL OUT =           0.1644

               IN - OUT =       5.0478E-07              IN - OUT =      -3.9190E-06

    PERCENT DISCREPANCY =           0.00     PERCENT DISCREPANCY =          -0.00



                      VOLUMETRIC SWI ZONE BUDGET FOR ENTIRE MODEL
                     AT END OF TIME STEP   83 IN STRESS PERIOD   1
                                      ZONE     2
  -----------------------------------------------------------------------------------

        CUMULATIVE VOLUMES      L**3       RATES FOR THIS TIME STEP      L**3/T
        ------------------                 ------------------------

              IN:                                      IN:
              ---                                      ---
             BOUNDARIES =       6.5262E-14            BOUNDARIES =       6.3877E-13
          CONSTANT HEAD =       1.0297E-03         CONSTANT HEAD =       7.7327E-03
            ZONE CHANGE =       3.4950E-05           ZONE CHANGE =       2.4687E-04
       ZONE CHG TIP/TOE =       1.9214E-07      ZONE CHG TIP/TOE =       1.7100E-06
            ZONE MIXING =           0.0000           ZONE MIXING =           0.0000

               TOTAL IN =       1.0649E-03              TOTAL IN =       7.9812E-03

             OUT:                                     OUT:
             ----                                     ----
             BOUNDARIES =       6.5417E-14            BOUNDARIES =       6.8361E-13
          CONSTANT HEAD =           0.0000         CONSTANT HEAD =           0.0000
            ZONE CHANGE =       1.0494E-03           ZONE CHANGE =       7.9685E-03
       ZONE CHG TIP/TOE =       1.5926E-05      ZONE CHG TIP/TOE =       8.4871E-06
            ZONE MIXING =           0.0000           ZONE MIXING =           0.0000

              TOTAL OUT =       1.0653E-03             TOTAL OUT =       7.9770E-03

               IN - OUT =      -4.7265E-07              IN - OUT =       4.2096E-06

    PERCENT DISCREPANCY =          -0.04     PERCENT DISCREPANCY =           0.05


 HEAD WILL BE SAVED ON UNIT   51 AT END OF TIME STEP   83, STRESS PERIOD    1
1
  VOLUMETRIC BUDGET FOR ENTIRE MODEL AT END OF TIME STEP   83, STRESS PERIOD   1
  ------------------------------------------------------------------------------

     CUMULATIVE VOLUMES      L**3       RATES FOR THIS TIME STEP      L**3/T
     ------------------                 ------------------------

           IN:                                      IN:
           ---                                      ---
             STORAGE =       6.7905E-05               STORAGE =       1.9215E-05
       CONSTANT HEAD =       1.6491E-02         CONSTANT HEAD =           0.1641
               WELLS =           0.0000                 WELLS =           0.0000
          SWIADDTOCH =           0.0000            SWIADDTOCH =           0.0000

            TOTAL IN =       1.6559E-02              TOTAL IN =           0.1642

          OUT:                                     OUT:
          ----                                     ----
             STORAGE =       3.6136E-10               STORAGE =       4.1022E-09
       CONSTANT HEAD =           0.0000         CONSTANT HEAD =           0.0000
               WELLS =       1.6559E-02                 WELLS =           0.1642
          SWIADDTOCH =       3.4153E-10            SWIADDTOCH =           0.0000

           TOTAL OUT =       1.6559E-02             TOTAL OUT =           0.1642

            IN - OUT =      -1.3039E-08              IN - OUT =           0.0000

 PERCENT DISCREPANCY =          -0.00     PERCENT DISCREPANCY =           0.00






         TIME SUMMARY AT END OF TIME STEP   83 IN STRESS PERIOD    1
                    SECONDS     MINUTES      HOURS       DAYS        YEARS
                    -----------------------------------------------------------
   TIME STEP LENGTH  105.00      1.7500     2.91667E-02 1.21528E-03 3.32726E-06
 STRESS PERIOD TIME  8715.0      145.25      2.4208     0.10087     2.76162E-04
         TOTAL TIME  8715.0      145.25      2.4208     0.10087     2.76162E-04
1

 SOLVING FOR HEAD 
     2 EXTERNAL ITERATIONS FOR TIME STEP  84 IN STRESS PERIOD    1

 MAXIMUM HEAD CHANGE FOR EACH ITERATION:

     HEAD CHANGE  LAY,ROW,COL      HEAD CHANGE  LAY,ROW,COL  
 ------------------------------------------------------------
    -2.012E-05 (  6,    1, 1000)  -2.354E-07 (  6,    1, 1000)



 OUTPUT CONTROL FOR STRESS PERIOD    1   TIME STEP   84
    PRINT BUDGET
    SAVE HEAD FOR ALL LAYERS
 SOLVING FOR ZETA FOR LAYER     6 ZONE     2

     495 UPPER PART EQS.       495 LOWER PART EQS.    BAND WIDTH + 1 =    3
 STRESS PERIOD=  1 TIMESTEP= 84 LAYER=  6 ZONE=  2 ACTIVE CELLS=  990 NUMBER OF EQUATIONS=     990
 UBUDSV SAVING "      ZETASRF  1" ON UNIT 55 AT TIME STEP 84, STRESS PERIOD    1


                      VOLUMETRIC SWI ZONE BUDGET FOR ENTIRE MODEL
                     AT END OF TIME STEP   84 IN STRESS PERIOD   1
                                      ZONE     1
  -----------------------------------------------------------------------------------

        CUMULATIVE VOLUMES      L**3       RATES FOR THIS TIME STEP      L**3/T
        ------------------                 ------------------------

              IN:                                      IN:
              ---                                      ---
             BOUNDARIES =       1.6938E-08            BOUNDARIES =       1.6311E-07
          CONSTANT HEAD =       1.5651E-02         CONSTANT HEAD =           0.1565
            ZONE CHANGE =       1.1269E-03           ZONE CHANGE =       7.8697E-03
       ZONE CHG TIP/TOE =       1.7798E-05      ZONE CHG TIP/TOE =       1.7320E-05
            ZONE MIXING =           0.0000           ZONE MIXING =           0.0000

               TOTAL IN =       1.6796E-02              TOTAL IN =           0.1643

             OUT:                                     OUT:
             ----                                     ----
             BOUNDARIES =       1.6758E-02            BOUNDARIES =           0.1642
          CONSTANT HEAD =           0.0000         CONSTANT HEAD =           0.0000
            ZONE CHANGE =       3.7039E-05           ZONE CHANGE =       1.9569E-04
       ZONE CHG TIP/TOE =       1.9375E-07      ZONE CHG TIP/TOE =       1.3288E-06
            ZONE MIXING =           0.0000           ZONE MIXING =           0.0000

              TOTAL OUT =       1.6795E-02             TOTAL OUT =           0.1644

               IN - OUT =       4.9174E-07              IN - OUT =      -8.8215E-06

    PERCENT DISCREPANCY =           0.00     PERCENT DISCREPANCY =          -0.01



                      VOLUMETRIC SWI ZONE BUDGET FOR ENTIRE MODEL
                     AT END OF TIME STEP   84 IN STRESS PERIOD   1
                                      ZONE     2
  -----------------------------------------------------------------------------------

        CUMULATIVE VOLUMES      L**3       RATES FOR THIS TIME STEP      L**3/T
        ------------------                 ------------------------

              IN:                                      IN:
              ---                                      ---
             BOUNDARIES =       6.6062E-14            BOUNDARIES =       6.5854E-13
          CONSTANT HEAD =       1.0390E-03         CONSTANT HEAD =       7.6797E-03
            ZONE CHANGE =       3.5172E-05           ZONE CHANGE =       1.8218E-04
       ZONE CHG TIP/TOE =       1.9375E-07      ZONE CHG TIP/TOE =       1.3288E-06
            ZONE MIXING =           0.0000           ZONE MIXING =           0.0000

               TOTAL IN =       1.0744E-03              TOTAL IN =       7.8632E-03

             OUT:                                     OUT:
             ----                                     ----
             BOUNDARIES =       6.6215E-14            BOUNDARIES =       6.5662E-13
          CONSTANT HEAD =           0.0000         CONSTANT HEAD =           0.0000
            ZONE CHANGE =       1.0589E-03           ZONE CHANGE =       7.8503E-03
       ZONE CHG TIP/TOE =       1.5930E-05      ZONE CHG TIP/TOE =       3.8111E-06
            ZONE MIXING =           0.0000           ZONE MIXING =           0.0000

              TOTAL OUT =       1.0749E-03             TOTAL OUT =       7.8541E-03

               IN - OUT =      -4.6159E-07              IN - OUT =       9.0953E-06

    PERCENT DISCREPANCY =          -0.04     PERCENT DISCREPANCY =           0.12


 HEAD WILL BE SAVED ON UNIT   51 AT END OF TIME STEP   84, STRESS PERIOD    1
1
  VOLUMETRIC BUDGET FOR ENTIRE MODEL AT END OF TIME STEP   84, STRESS PERIOD   1
  ------------------------------------------------------------------------------

     CUMULATIVE VOLUMES      L**3       RATES FOR THIS TIME STEP      L**3/T
     ------------------                 ------------------------

           IN:                                      IN:
           ---                                      ---
             STORAGE =       6.7928E-05               STORAGE =       1.9119E-05
       CONSTANT HEAD =       1.6690E-02         CONSTANT HEAD =           0.1641
               WELLS =           0.0000                 WELLS =           0.0000
          SWIADDTOCH =           0.0000            SWIADDTOCH =           0.0000

            TOTAL IN =       1.6758E-02              TOTAL IN =           0.1642

          OUT:                                     OUT:
          ----                                     ----
             STORAGE =       3.6634E-10               STORAGE =       4.0985E-09
       CONSTANT HEAD =           0.0000         CONSTANT HEAD =           0.0000
               WELLS =       1.6758E-02                 WELLS =           0.1642
          SWIADDTOCH =       3.4153E-10            SWIADDTOCH =           0.0000

           TOTAL OUT =       1.6758E-02             TOTAL OUT =           0.1642

            IN - OUT =      -1.4901E-08              IN - OUT =      -1.4901E-08

 PERCENT DISCREPANCY =          -0.00     PERCENT DISCREPANCY =          -0.00






         TIME SUMMARY AT END OF TIME STEP   84 IN STRESS PERIOD    1
                    SECONDS     MINUTES      HOURS       DAYS        YEARS
                    -----------------------------------------------------------
   TIME STEP LENGTH  105.00      1.7500     2.91667E-02 1.21528E-03 3.32726E-06
 STRESS PERIOD TIME  8820.0      147.00      2.4500     0.10208     2.79489E-04
         TOTAL TIME  8820.0      147.00      2.4500     0.10208     2.79489E-04
1

 SOLVING FOR HEAD 
     2 EXTERNAL ITERATIONS FOR TIME STEP  85 IN STRESS PERIOD    1

 MAXIMUM HEAD CHANGE FOR EACH ITERATION:

     HEAD CHANGE  LAY,ROW,COL      HEAD CHANGE  LAY,ROW,COL  
 ------------------------------------------------------------
    -2.012E-05 (  6,    1, 1000)  -2.351E-07 (  6,    1, 1000)



 OUTPUT CONTROL FOR STRESS PERIOD    1   TIME STEP   85
    PRINT BUDGET
    SAVE HEAD FOR ALL LAYERS
 SOLVING FOR ZETA FOR LAYER     6 ZONE     2

     493 UPPER PART EQS.       497 LOWER PART EQS.    BAND WIDTH + 1 =    5
 STRESS PERIOD=  1 TIMESTEP= 85 LAYER=  6 ZONE=  2 ACTIVE CELLS=  990 NUMBER OF EQUATIONS=     990
 UBUDSV SAVING "      ZETASRF  1" ON UNIT 55 AT TIME STEP 85, STRESS PERIOD    1


                      VOLUMETRIC SWI ZONE BUDGET FOR ENTIRE MODEL
                     AT END OF TIME STEP   85 IN STRESS PERIOD   1
                                      ZONE     1
  -----------------------------------------------------------------------------------

        CUMULATIVE VOLUMES      L**3       RATES FOR THIS TIME STEP      L**3/T
        ------------------                 ------------------------

              IN:                                      IN:
              ---                                      ---
             BOUNDARIES =       1.7140E-08            BOUNDARIES =       1.6581E-07
          CONSTANT HEAD =       1.5841E-02         CONSTANT HEAD =           0.1565
            ZONE CHANGE =       1.1363E-03           ZONE CHANGE =       7.7625E-03
       ZONE CHG TIP/TOE =       1.7810E-05      ZONE CHG TIP/TOE =       1.0314E-05
            ZONE MIXING =           0.0000           ZONE MIXING =           0.0000

               TOTAL IN =       1.6995E-02              TOTAL IN =           0.1643

             OUT:                                     OUT:
             ----                                     ----
             BOUNDARIES =       1.6958E-02            BOUNDARIES =           0.1642
          CONSTANT HEAD =           0.0000         CONSTANT HEAD =           0.0000
            ZONE CHANGE =       3.7200E-05           ZONE CHANGE =       1.3213E-04
       ZONE CHG TIP/TOE =       1.9548E-07      ZONE CHG TIP/TOE =       1.4175E-06
            ZONE MIXING =           0.0000           ZONE MIXING =           0.0000

              TOTAL OUT =       1.6995E-02             TOTAL OUT =           0.1643

               IN - OUT =       4.8429E-07              IN - OUT =      -6.7353E-06

    PERCENT DISCREPANCY =           0.00     PERCENT DISCREPANCY =          -0.00



                      VOLUMETRIC SWI ZONE BUDGET FOR ENTIRE MODEL
                     AT END OF TIME STEP   85 IN STRESS PERIOD   1
                                      ZONE     2
  -----------------------------------------------------------------------------------

        CUMULATIVE VOLUMES      L**3       RATES FOR THIS TIME STEP      L**3/T
        ------------------                 ------------------------

              IN:                                      IN:
              ---                                      ---
             BOUNDARIES =       6.6843E-14            BOUNDARIES =       6.4264E-13
          CONSTANT HEAD =       1.0483E-03         CONSTANT HEAD =       7.6269E-03
            ZONE CHANGE =       3.5323E-05           ZONE CHANGE =       1.2437E-04
       ZONE CHG TIP/TOE =       1.9548E-07      ZONE CHG TIP/TOE =       1.4175E-06
            ZONE MIXING =           0.0000           ZONE MIXING =           0.0000

               TOTAL IN =       1.0838E-03              TOTAL IN =       7.7527E-03

             OUT:                                     OUT:
             ----                                     ----
             BOUNDARIES =       6.6963E-14            BOUNDARIES =       6.1579E-13
          CONSTANT HEAD =           0.0000         CONSTANT HEAD =           0.0000
            ZONE CHANGE =       1.0683E-03           ZONE CHANGE =       7.7431E-03
       ZONE CHG TIP/TOE =       1.5934E-05      ZONE CHG TIP/TOE =       2.5535E-06
            ZONE MIXING =           0.0000           ZONE MIXING =           0.0000

              TOTAL OUT =       1.0843E-03             TOTAL OUT =       7.7457E-03

               IN - OUT =      -4.5297E-07              IN - OUT =       7.0287E-06

    PERCENT DISCREPANCY =          -0.04     PERCENT DISCREPANCY =           0.09


 HEAD WILL BE SAVED ON UNIT   51 AT END OF TIME STEP   85, STRESS PERIOD    1
1
  VOLUMETRIC BUDGET FOR ENTIRE MODEL AT END OF TIME STEP   85, STRESS PERIOD   1
  ------------------------------------------------------------------------------

     CUMULATIVE VOLUMES      L**3       RATES FOR THIS TIME STEP      L**3/T
     ------------------                 ------------------------

           IN:                                      IN:
           ---                                      ---
             STORAGE =       6.7951E-05               STORAGE =       1.9072E-05
       CONSTANT HEAD =       1.6890E-02         CONSTANT HEAD =           0.1641
               WELLS =           0.0000                 WELLS =           0.0000
          SWIADDTOCH =           0.0000            SWIADDTOCH =           0.0000

            TOTAL IN =       1.6958E-02              TOTAL IN =           0.1642

          OUT:                                     OUT:
          ----                                     ----
             STORAGE =       3.7358E-10               STORAGE =       5.9563E-09
       CONSTANT HEAD =           0.0000         CONSTANT HEAD =           0.0000
               WELLS =       1.6958E-02                 WELLS =           0.1642
          SWIADDTOCH =       3.4153E-10            SWIADDTOCH =           0.0000

           TOTAL OUT =       1.6958E-02             TOTAL OUT =           0.1642

            IN - OUT =      -1.4901E-08              IN - OUT =      -1.4901E-08

 PERCENT DISCREPANCY =          -0.00     PERCENT DISCREPANCY =          -0.00






         TIME SUMMARY AT END OF TIME STEP   85 IN STRESS PERIOD    1
                    SECONDS     MINUTES      HOURS       DAYS        YEARS
                    -----------------------------------------------------------
   TIME STEP LENGTH  105.00      1.7500     2.91667E-02 1.21528E-03 3.32726E-06
 STRESS PERIOD TIME  8925.0      148.75      2.4792     0.10330     2.82817E-04
         TOTAL TIME  8925.0      148.75      2.4792     0.10330     2.82817E-04
1

 SOLVING FOR HEAD 
     2 EXTERNAL ITERATIONS FOR TIME STEP  86 IN STRESS PERIOD    1

 MAXIMUM HEAD CHANGE FOR EACH ITERATION:

     HEAD CHANGE  LAY,ROW,COL      HEAD CHANGE  LAY,ROW,COL  
 ------------------------------------------------------------
    -2.010E-05 (  6,    1, 1000)  -2.342E-07 (  6,    1, 1000)



 OUTPUT CONTROL FOR STRESS PERIOD    1   TIME STEP   86
    PRINT BUDGET
    SAVE HEAD FOR ALL LAYERS
 SOLVING FOR ZETA FOR LAYER     6 ZONE     2

     497 UPPER PART EQS.       495 LOWER PART EQS.    BAND WIDTH + 1 =    4
 STRESS PERIOD=  1 TIMESTEP= 86 LAYER=  6 ZONE=  2 ACTIVE CELLS=  992 NUMBER OF EQUATIONS=     992
 UBUDSV SAVING "      ZETASRF  1" ON UNIT 55 AT TIME STEP 86, STRESS PERIOD    1


                      VOLUMETRIC SWI ZONE BUDGET FOR ENTIRE MODEL
                     AT END OF TIME STEP   86 IN STRESS PERIOD   1
                                      ZONE     1
  -----------------------------------------------------------------------------------

        CUMULATIVE VOLUMES      L**3       RATES FOR THIS TIME STEP      L**3/T
        ------------------                 ------------------------

              IN:                                      IN:
              ---                                      ---
             BOUNDARIES =       1.7332E-08            BOUNDARIES =       1.5806E-07
          CONSTANT HEAD =       1.6032E-02         CONSTANT HEAD =           0.1566
            ZONE CHANGE =       1.1458E-03           ZONE CHANGE =       7.7765E-03
       ZONE CHG TIP/TOE =       1.7821E-05      ZONE CHG TIP/TOE =       8.6456E-06
            ZONE MIXING =           0.0000           ZONE MIXING =           0.0000

               TOTAL IN =       1.7195E-02              TOTAL IN =           0.1644

             OUT:                                     OUT:
             ----                                     ----
             BOUNDARIES =       1.7157E-02            BOUNDARIES =           0.1642
          CONSTANT HEAD =           0.0000         CONSTANT HEAD =           0.0000
            ZONE CHANGE =       3.7442E-05           ZONE CHANGE =       1.9935E-04
       ZONE CHG TIP/TOE =       1.9877E-07      ZONE CHG TIP/TOE =       2.7075E-06
            ZONE MIXING =           0.0000           ZONE MIXING =           0.0000

              TOTAL OUT =       1.7195E-02             TOTAL OUT =           0.1644

               IN - OUT =       4.7125E-07              IN - OUT =      -1.0058E-05

    PERCENT DISCREPANCY =           0.00     PERCENT DISCREPANCY =          -0.01



                      VOLUMETRIC SWI ZONE BUDGET FOR ENTIRE MODEL
                     AT END OF TIME STEP   86 IN STRESS PERIOD   1
                                      ZONE     2
  -----------------------------------------------------------------------------------

        CUMULATIVE VOLUMES      L**3       RATES FOR THIS TIME STEP      L**3/T
        ------------------                 ------------------------

              IN:                                      IN:
              ---                                      ---
             BOUNDARIES =       6.7663E-14            BOUNDARIES =       6.7440E-13
          CONSTANT HEAD =       1.0575E-03         CONSTANT HEAD =       7.5741E-03
            ZONE CHANGE =       3.5557E-05           ZONE CHANGE =       1.9284E-04
       ZONE CHG TIP/TOE =       1.9877E-07      ZONE CHG TIP/TOE =       2.7075E-06
            ZONE MIXING =           0.0000           ZONE MIXING =           0.0000

               TOTAL IN =       1.0933E-03              TOTAL IN =       7.7697E-03

             OUT:                                     OUT:
             ----                                     ----
             BOUNDARIES =       6.7765E-14            BOUNDARIES =       6.5936E-13
          CONSTANT HEAD =           0.0000         CONSTANT HEAD =           0.0000
            ZONE CHANGE =       1.0778E-03           ZONE CHANGE =       7.7572E-03
       ZONE CHG TIP/TOE =       1.5936E-05      ZONE CHG TIP/TOE =       2.1419E-06
            ZONE MIXING =           0.0000           ZONE MIXING =           0.0000

              TOTAL OUT =       1.0937E-03             TOTAL OUT =       7.7594E-03

               IN - OUT =      -4.4052E-07              IN - OUT =       1.0327E-05

    PERCENT DISCREPANCY =          -0.04     PERCENT DISCREPANCY =           0.13


 HEAD WILL BE SAVED ON UNIT   51 AT END OF TIME STEP   86, STRESS PERIOD    1
1
  VOLUMETRIC BUDGET FOR ENTIRE MODEL AT END OF TIME STEP   86, STRESS PERIOD   1
  ------------------------------------------------------------------------------

     CUMULATIVE VOLUMES      L**3       RATES FOR THIS TIME STEP      L**3/T
     ------------------                 ------------------------

           IN:                                      IN:
           ---                                      ---
             STORAGE =       6.7974E-05               STORAGE =       1.9039E-05
       CONSTANT HEAD =       1.7089E-02         CONSTANT HEAD =           0.1641
               WELLS =           0.0000                 WELLS =           0.0000
          SWIADDTOCH =           0.0000            SWIADDTOCH =           0.0000

            TOTAL IN =       1.7157E-02              TOTAL IN =           0.1642

          OUT:                                     OUT:
          ----                                     ----
             STORAGE =       3.7855E-10               STORAGE =       4.0897E-09
       CONSTANT HEAD =           0.0000         CONSTANT HEAD =           0.0000
               WELLS =       1.7157E-02                 WELLS =           0.1642
          SWIADDTOCH =       3.4153E-10            SWIADDTOCH =           0.0000

           TOTAL OUT =       1.7157E-02             TOTAL OUT =           0.1642

            IN - OUT =      -1.4901E-08              IN - OUT =       1.4901E-08

 PERCENT DISCREPANCY =          -0.00     PERCENT DISCREPANCY =           0.00






         TIME SUMMARY AT END OF TIME STEP   86 IN STRESS PERIOD    1
                    SECONDS     MINUTES      HOURS       DAYS        YEARS
                    -----------------------------------------------------------
   TIME STEP LENGTH  105.00      1.7500     2.91667E-02 1.21528E-03 3.32726E-06
 STRESS PERIOD TIME  9030.0      150.50      2.5083     0.10451     2.86144E-04
         TOTAL TIME  9030.0      150.50      2.5083     0.10451     2.86144E-04
1

 SOLVING FOR HEAD 
     2 EXTERNAL ITERATIONS FOR TIME STEP  87 IN STRESS PERIOD    1

 MAXIMUM HEAD CHANGE FOR EACH ITERATION:

     HEAD CHANGE  LAY,ROW,COL      HEAD CHANGE  LAY,ROW,COL  
 ------------------------------------------------------------
    -2.009E-05 (  6,    1, 1000)  -2.340E-07 (  6,    1, 1000)



 OUTPUT CONTROL FOR STRESS PERIOD    1   TIME STEP   87
    PRINT BUDGET
    SAVE HEAD FOR ALL LAYERS
 SOLVING FOR ZETA FOR LAYER     6 ZONE     2

     496 UPPER PART EQS.       496 LOWER PART EQS.    BAND WIDTH + 1 =    3
 STRESS PERIOD=  1 TIMESTEP= 87 LAYER=  6 ZONE=  2 ACTIVE CELLS=  992 NUMBER OF EQUATIONS=     992
 UBUDSV SAVING "      ZETASRF  1" ON UNIT 55 AT TIME STEP 87, STRESS PERIOD    1


                      VOLUMETRIC SWI ZONE BUDGET FOR ENTIRE MODEL
                     AT END OF TIME STEP   87 IN STRESS PERIOD   1
                                      ZONE     1
  -----------------------------------------------------------------------------------

        CUMULATIVE VOLUMES      L**3       RATES FOR THIS TIME STEP      L**3/T
        ------------------                 ------------------------

              IN:                                      IN:
              ---                                      ---
             BOUNDARIES =       1.7549E-08            BOUNDARIES =       1.7855E-07
          CONSTANT HEAD =       1.6222E-02         CONSTANT HEAD =           0.1566
            ZONE CHANGE =       1.1553E-03           ZONE CHANGE =       7.8680E-03
       ZONE CHG TIP/TOE =       1.7840E-05      ZONE CHG TIP/TOE =       1.5923E-05
            ZONE MIXING =           0.0000           ZONE MIXING =           0.0000

               TOTAL IN =       1.7395E-02              TOTAL IN =           0.1645

             OUT:                                     OUT:
             ----                                     ----
             BOUNDARIES =       1.7357E-02            BOUNDARIES =           0.1642
          CONSTANT HEAD =           0.0000         CONSTANT HEAD =           0.0000
            ZONE CHANGE =       3.7848E-05           ZONE CHANGE =       3.3410E-04
       ZONE CHG TIP/TOE =       2.0115E-07      ZONE CHG TIP/TOE =       1.9584E-06
            ZONE MIXING =           0.0000           ZONE MIXING =           0.0000

              TOTAL OUT =       1.7395E-02             TOTAL OUT =           0.1645

               IN - OUT =       4.8056E-07              IN - OUT =       7.1973E-06

    PERCENT DISCREPANCY =           0.00     PERCENT DISCREPANCY =           0.00



                      VOLUMETRIC SWI ZONE BUDGET FOR ENTIRE MODEL
                     AT END OF TIME STEP   87 IN STRESS PERIOD   1
                                      ZONE     2
  -----------------------------------------------------------------------------------

        CUMULATIVE VOLUMES      L**3       RATES FOR THIS TIME STEP      L**3/T
        ------------------                 ------------------------

              IN:                                      IN:
              ---                                      ---
             BOUNDARIES =       6.8403E-14            BOUNDARIES =       6.0950E-13
          CONSTANT HEAD =       1.0667E-03         CONSTANT HEAD =       7.5218E-03
            ZONE CHANGE =       3.5946E-05           ZONE CHANGE =       3.1947E-04
       ZONE CHG TIP/TOE =       2.0115E-07      ZONE CHG TIP/TOE =       1.9584E-06
            ZONE MIXING =           0.0000           ZONE MIXING =           0.0000

               TOTAL IN =       1.1028E-03              TOTAL IN =       7.8432E-03

             OUT:                                     OUT:
             ----                                     ----
             BOUNDARIES =       6.8546E-14            BOUNDARIES =       6.4299E-13
          CONSTANT HEAD =           0.0000         CONSTANT HEAD =           0.0000
            ZONE CHANGE =       1.0873E-03           ZONE CHANGE =       7.8488E-03
       ZONE CHG TIP/TOE =       1.5938E-05      ZONE CHG TIP/TOE =       1.2931E-06
            ZONE MIXING =           0.0000           ZONE MIXING =           0.0000

              TOTAL OUT =       1.1033E-03             TOTAL OUT =       7.8501E-03

               IN - OUT =      -4.4878E-07              IN - OUT =      -6.8862E-06

    PERCENT DISCREPANCY =          -0.04     PERCENT DISCREPANCY =          -0.09


 HEAD WILL BE SAVED ON UNIT   51 AT END OF TIME STEP   87, STRESS PERIOD    1
1
  VOLUMETRIC BUDGET FOR ENTIRE MODEL AT END OF TIME STEP   87, STRESS PERIOD   1
  ------------------------------------------------------------------------------

     CUMULATIVE VOLUMES      L**3       RATES FOR THIS TIME STEP      L**3/T
     ------------------                 ------------------------

           IN:                                      IN:
           ---                                      ---
             STORAGE =       6.7997E-05               STORAGE =       1.8917E-05
       CONSTANT HEAD =       1.7289E-02         CONSTANT HEAD =           0.1641
               WELLS =           0.0000                 WELLS =           0.0000
          SWIADDTOCH =           0.0000            SWIADDTOCH =           0.0000

            TOTAL IN =       1.7357E-02              TOTAL IN =           0.1642

          OUT:                                     OUT:
          ----                                     ----
             STORAGE =       3.8465E-10               STORAGE =       5.0176E-09
       CONSTANT HEAD =           0.0000         CONSTANT HEAD =           0.0000
               WELLS =       1.7357E-02                 WELLS =           0.1642
          SWIADDTOCH =       3.4153E-10            SWIADDTOCH =           0.0000

           TOTAL OUT =       1.7357E-02             TOTAL OUT =           0.1642

            IN - OUT =      -1.3039E-08              IN - OUT =      -1.4901E-08

 PERCENT DISCREPANCY =          -0.00     PERCENT DISCREPANCY =          -0.00






         TIME SUMMARY AT END OF TIME STEP   87 IN STRESS PERIOD    1
                    SECONDS     MINUTES      HOURS       DAYS        YEARS
                    -----------------------------------------------------------
   TIME STEP LENGTH  105.00      1.7500     2.91667E-02 1.21528E-03 3.32726E-06
 STRESS PERIOD TIME  9135.0      152.25      2.5375     0.10573     2.89471E-04
         TOTAL TIME  9135.0      152.25      2.5375     0.10573     2.89471E-04
1

 SOLVING FOR HEAD 
     2 EXTERNAL ITERATIONS FOR TIME STEP  88 IN STRESS PERIOD    1

 MAXIMUM HEAD CHANGE FOR EACH ITERATION:

     HEAD CHANGE  LAY,ROW,COL      HEAD CHANGE  LAY,ROW,COL  
 ------------------------------------------------------------
    -2.006E-05 (  6,    1, 1000)  -2.335E-07 (  6,    1,  999)



 OUTPUT CONTROL FOR STRESS PERIOD    1   TIME STEP   88
    PRINT BUDGET
    SAVE HEAD FOR ALL LAYERS
 SOLVING FOR ZETA FOR LAYER     6 ZONE     2

     496 UPPER PART EQS.       496 LOWER PART EQS.    BAND WIDTH + 1 =    4
 STRESS PERIOD=  1 TIMESTEP= 88 LAYER=  6 ZONE=  2 ACTIVE CELLS=  992 NUMBER OF EQUATIONS=     992
 UBUDSV SAVING "      ZETASRF  1" ON UNIT 55 AT TIME STEP 88, STRESS PERIOD    1


                      VOLUMETRIC SWI ZONE BUDGET FOR ENTIRE MODEL
                     AT END OF TIME STEP   88 IN STRESS PERIOD   1
                                      ZONE     1
  -----------------------------------------------------------------------------------

        CUMULATIVE VOLUMES      L**3       RATES FOR THIS TIME STEP      L**3/T
        ------------------                 ------------------------

              IN:                                      IN:
              ---                                      ---
             BOUNDARIES =       1.7759E-08            BOUNDARIES =       1.7280E-07
          CONSTANT HEAD =       1.6412E-02         CONSTANT HEAD =           0.1567
            ZONE CHANGE =       1.1656E-03           ZONE CHANGE =       8.4186E-03
       ZONE CHG TIP/TOE =       1.7873E-05      ZONE CHG TIP/TOE =       2.7158E-05
            ZONE MIXING =           0.0000           ZONE MIXING =           0.0000

               TOTAL IN =       1.7596E-02              TOTAL IN =           0.1651

             OUT:                                     OUT:
             ----                                     ----
             BOUNDARIES =       1.7556E-02            BOUNDARIES =           0.1642
          CONSTANT HEAD =           0.0000         CONSTANT HEAD =           0.0000
            ZONE CHANGE =       3.8991E-05           ZONE CHANGE =       9.4054E-04
       ZONE CHG TIP/TOE =       2.0387E-07      ZONE CHG TIP/TOE =       2.2367E-06
            ZONE MIXING =           0.0000           ZONE MIXING =           0.0000

              TOTAL OUT =       1.7595E-02             TOTAL OUT =           0.1651

               IN - OUT =       5.0105E-07              IN - OUT =       1.4186E-05

    PERCENT DISCREPANCY =           0.00     PERCENT DISCREPANCY =           0.01



                      VOLUMETRIC SWI ZONE BUDGET FOR ENTIRE MODEL
                     AT END OF TIME STEP   88 IN STRESS PERIOD   1
                                      ZONE     2
  -----------------------------------------------------------------------------------

        CUMULATIVE VOLUMES      L**3       RATES FOR THIS TIME STEP      L**3/T
        ------------------                 ------------------------

              IN:                                      IN:
              ---                                      ---
             BOUNDARIES =       6.9180E-14            BOUNDARIES =       6.3930E-13
          CONSTANT HEAD =       1.0757E-03         CONSTANT HEAD =       7.4699E-03
            ZONE CHANGE =       3.7063E-05           ZONE CHANGE =       9.1944E-04
       ZONE CHG TIP/TOE =       2.0387E-07      ZONE CHG TIP/TOE =       2.2367E-06
            ZONE MIXING =           0.0000           ZONE MIXING =           0.0000

               TOTAL IN =       1.1130E-03              TOTAL IN =       8.3915E-03

             OUT:                                     OUT:
             ----                                     ----
             BOUNDARIES =       6.9348E-14            BOUNDARIES =       6.5992E-13
          CONSTANT HEAD =           0.0000         CONSTANT HEAD =           0.0000
            ZONE CHANGE =       1.0975E-03           ZONE CHANGE =       8.3994E-03
       ZONE CHG TIP/TOE =       1.5945E-05      ZONE CHG TIP/TOE =       6.0555E-06
            ZONE MIXING =           0.0000           ZONE MIXING =           0.0000

              TOTAL OUT =       1.1135E-03             TOTAL OUT =       8.4054E-03

               IN - OUT =      -4.6578E-07              IN - OUT =      -1.3889E-05

    PERCENT DISCREPANCY =          -0.04     PERCENT DISCREPANCY =          -0.17


 HEAD WILL BE SAVED ON UNIT   51 AT END OF TIME STEP   88, STRESS PERIOD    1
1
  VOLUMETRIC BUDGET FOR ENTIRE MODEL AT END OF TIME STEP   88, STRESS PERIOD   1
  ------------------------------------------------------------------------------

     CUMULATIVE VOLUMES      L**3       RATES FOR THIS TIME STEP      L**3/T
     ------------------                 ------------------------

           IN:                                      IN:
           ---                                      ---
             STORAGE =       6.8020E-05               STORAGE =       1.8890E-05
       CONSTANT HEAD =       1.7488E-02         CONSTANT HEAD =           0.1641
               WELLS =           0.0000                 WELLS =           0.0000
          SWIADDTOCH =           0.0000            SWIADDTOCH =           0.0000

            TOTAL IN =       1.7556E-02              TOTAL IN =           0.1642

          OUT:                                     OUT:
          ----                                     ----
             STORAGE =       3.9075E-10               STORAGE =       5.0157E-09
       CONSTANT HEAD =           0.0000         CONSTANT HEAD =           0.0000
               WELLS =       1.7556E-02                 WELLS =           0.1642
          SWIADDTOCH =       3.4153E-10            SWIADDTOCH =           0.0000

           TOTAL OUT =       1.7556E-02             TOTAL OUT =           0.1642

            IN - OUT =      -1.3039E-08              IN - OUT =      -2.9802E-08

 PERCENT DISCREPANCY =          -0.00     PERCENT DISCREPANCY =          -0.00






         TIME SUMMARY AT END OF TIME STEP   88 IN STRESS PERIOD    1
                    SECONDS     MINUTES      HOURS       DAYS        YEARS
                    -----------------------------------------------------------
   TIME STEP LENGTH  105.00      1.7500     2.91667E-02 1.21528E-03 3.32726E-06
 STRESS PERIOD TIME  9240.0      154.00      2.5667     0.10694     2.92798E-04
         TOTAL TIME  9240.0      154.00      2.5667     0.10694     2.92798E-04
1

 SOLVING FOR HEAD 
     2 EXTERNAL ITERATIONS FOR TIME STEP  89 IN STRESS PERIOD    1

 MAXIMUM HEAD CHANGE FOR EACH ITERATION:

     HEAD CHANGE  LAY,ROW,COL      HEAD CHANGE  LAY,ROW,COL  
 ------------------------------------------------------------
    -2.005E-05 (  6,    1, 1000)  -2.331E-07 (  6,    1, 1000)



 OUTPUT CONTROL FOR STRESS PERIOD    1   TIME STEP   89
    PRINT BUDGET
    SAVE HEAD FOR ALL LAYERS
 SOLVING FOR ZETA FOR LAYER     6 ZONE     2

     495 UPPER PART EQS.       496 LOWER PART EQS.    BAND WIDTH + 1 =    3
 STRESS PERIOD=  1 TIMESTEP= 89 LAYER=  6 ZONE=  2 ACTIVE CELLS=  991 NUMBER OF EQUATIONS=     991
 UBUDSV SAVING "      ZETASRF  1" ON UNIT 55 AT TIME STEP 89, STRESS PERIOD    1


                      VOLUMETRIC SWI ZONE BUDGET FOR ENTIRE MODEL
                     AT END OF TIME STEP   89 IN STRESS PERIOD   1
                                      ZONE     1
  -----------------------------------------------------------------------------------

        CUMULATIVE VOLUMES      L**3       RATES FOR THIS TIME STEP      L**3/T
        ------------------                 ------------------------

              IN:                                      IN:
              ---                                      ---
             BOUNDARIES =       1.7960E-08            BOUNDARIES =       1.6553E-07
          CONSTANT HEAD =       1.6603E-02         CONSTANT HEAD =           0.1567
            ZONE CHANGE =       1.1761E-03           ZONE CHANGE =       8.6485E-03
       ZONE CHG TIP/TOE =       1.7921E-05      ZONE CHG TIP/TOE =       3.9150E-05
            ZONE MIXING =           0.0000           ZONE MIXING =           0.0000

               TOTAL IN =       1.7797E-02              TOTAL IN =           0.1654

             OUT:                                     OUT:
             ----                                     ----
             BOUNDARIES =       1.7756E-02            BOUNDARIES =           0.1642
          CONSTANT HEAD =           0.0000         CONSTANT HEAD =           0.0000
            ZONE CHANGE =       4.0480E-05           ZONE CHANGE =       1.2252E-03
       ZONE CHG TIP/TOE =       2.0638E-07      ZONE CHG TIP/TOE =       2.0664E-06
            ZONE MIXING =           0.0000           ZONE MIXING =           0.0000

              TOTAL OUT =       1.7796E-02             TOTAL OUT =           0.1654

               IN - OUT =       5.2527E-07              IN - OUT =       2.1428E-05

    PERCENT DISCREPANCY =           0.00     PERCENT DISCREPANCY =           0.01



                      VOLUMETRIC SWI ZONE BUDGET FOR ENTIRE MODEL
                     AT END OF TIME STEP   89 IN STRESS PERIOD   1
                                      ZONE     2
  -----------------------------------------------------------------------------------

        CUMULATIVE VOLUMES      L**3       RATES FOR THIS TIME STEP      L**3/T
        ------------------                 ------------------------

              IN:                                      IN:
              ---                                      ---
             BOUNDARIES =       6.9975E-14            BOUNDARIES =       6.5387E-13
          CONSTANT HEAD =       1.0848E-03         CONSTANT HEAD =       7.4200E-03
            ZONE CHANGE =       3.8517E-05           ZONE CHANGE =       1.1966E-03
       ZONE CHG TIP/TOE =       2.0638E-07      ZONE CHG TIP/TOE =       2.0664E-06
            ZONE MIXING =           0.0000           ZONE MIXING =           0.0000

               TOTAL IN =       1.1235E-03              TOTAL IN =       8.6187E-03

             OUT:                                     OUT:
             ----                                     ----
             BOUNDARIES =       7.0125E-14            BOUNDARIES =       6.3953E-13
          CONSTANT HEAD =           0.0000         CONSTANT HEAD =           0.0000
            ZONE CHANGE =       1.1080E-03           ZONE CHANGE =       8.6293E-03
       ZONE CHG TIP/TOE =       1.5958E-05      ZONE CHG TIP/TOE =       1.0502E-05
            ZONE MIXING =           0.0000           ZONE MIXING =           0.0000

              TOTAL OUT =       1.1240E-03             TOTAL OUT =       8.6398E-03

               IN - OUT =      -4.9127E-07              IN - OUT =      -2.1131E-05

    PERCENT DISCREPANCY =          -0.04     PERCENT DISCREPANCY =          -0.24


 HEAD WILL BE SAVED ON UNIT   51 AT END OF TIME STEP   89, STRESS PERIOD    1
1
  VOLUMETRIC BUDGET FOR ENTIRE MODEL AT END OF TIME STEP   89, STRESS PERIOD   1
  ------------------------------------------------------------------------------

     CUMULATIVE VOLUMES      L**3       RATES FOR THIS TIME STEP      L**3/T
     ------------------                 ------------------------

           IN:                                      IN:
           ---                                      ---
             STORAGE =       6.8043E-05               STORAGE =       1.8856E-05
       CONSTANT HEAD =       1.7687E-02         CONSTANT HEAD =           0.1641
               WELLS =           0.0000                 WELLS =           0.0000
          SWIADDTOCH =           0.0000            SWIADDTOCH =           0.0000

            TOTAL IN =       1.7756E-02              TOTAL IN =           0.1642

          OUT:                                     OUT:
          ----                                     ----
             STORAGE =       3.9572E-10               STORAGE =       4.0914E-09
       CONSTANT HEAD =           0.0000         CONSTANT HEAD =           0.0000
               WELLS =       1.7756E-02                 WELLS =           0.1642
          SWIADDTOCH =       3.9199E-10            SWIADDTOCH =       4.1519E-08

           TOTAL OUT =       1.7756E-02             TOTAL OUT =           0.1642

            IN - OUT =      -1.3039E-08              IN - OUT =      -2.9802E-08

 PERCENT DISCREPANCY =          -0.00     PERCENT DISCREPANCY =          -0.00






         TIME SUMMARY AT END OF TIME STEP   89 IN STRESS PERIOD    1
                    SECONDS     MINUTES      HOURS       DAYS        YEARS
                    -----------------------------------------------------------
   TIME STEP LENGTH  105.00      1.7500     2.91667E-02 1.21528E-03 3.32726E-06
 STRESS PERIOD TIME  9345.0      155.75      2.5958     0.10816     2.96126E-04
         TOTAL TIME  9345.0      155.75      2.5958     0.10816     2.96126E-04
1

 SOLVING FOR HEAD 
     2 EXTERNAL ITERATIONS FOR TIME STEP  90 IN STRESS PERIOD    1

 MAXIMUM HEAD CHANGE FOR EACH ITERATION:

     HEAD CHANGE  LAY,ROW,COL      HEAD CHANGE  LAY,ROW,COL  
 ------------------------------------------------------------
    -2.003E-05 (  6,    1, 1000)  -2.331E-07 (  6,    1,  999)



 OUTPUT CONTROL FOR STRESS PERIOD    1   TIME STEP   90
    PRINT BUDGET
    SAVE HEAD FOR ALL LAYERS
 SOLVING FOR ZETA FOR LAYER     6 ZONE     2

     494 UPPER PART EQS.       495 LOWER PART EQS.    BAND WIDTH + 1 =    3
 STRESS PERIOD=  1 TIMESTEP= 90 LAYER=  6 ZONE=  2 ACTIVE CELLS=  989 NUMBER OF EQUATIONS=     989
 UBUDSV SAVING "      ZETASRF  1" ON UNIT 55 AT TIME STEP 90, STRESS PERIOD    1


                      VOLUMETRIC SWI ZONE BUDGET FOR ENTIRE MODEL
                     AT END OF TIME STEP   90 IN STRESS PERIOD   1
                                      ZONE     1
  -----------------------------------------------------------------------------------

        CUMULATIVE VOLUMES      L**3       RATES FOR THIS TIME STEP      L**3/T
        ------------------                 ------------------------

              IN:                                      IN:
              ---                                      ---
             BOUNDARIES =       1.8169E-08            BOUNDARIES =       1.7244E-07
          CONSTANT HEAD =       1.6793E-02         CONSTANT HEAD =           0.1568
            ZONE CHANGE =       1.1862E-03           ZONE CHANGE =       8.3433E-03
       ZONE CHG TIP/TOE =       1.7971E-05      ZONE CHG TIP/TOE =       4.1654E-05
            ZONE MIXING =           0.0000           ZONE MIXING =           0.0000

               TOTAL IN =       1.7997E-02              TOTAL IN =           0.1652

             OUT:                                     OUT:
             ----                                     ----
             BOUNDARIES =       1.7955E-02            BOUNDARIES =           0.1642
          CONSTANT HEAD =           0.0000         CONSTANT HEAD =           0.0000
            ZONE CHANGE =       4.1659E-05           ZONE CHANGE =       9.7048E-04
       ZONE CHG TIP/TOE =       2.0773E-07      ZONE CHG TIP/TOE =       1.1105E-06
            ZONE MIXING =           0.0000           ZONE MIXING =           0.0000

              TOTAL OUT =       1.7997E-02             TOTAL OUT =           0.1651

               IN - OUT =       5.4762E-07              IN - OUT =       2.1502E-05

    PERCENT DISCREPANCY =           0.00     PERCENT DISCREPANCY =           0.01



                      VOLUMETRIC SWI ZONE BUDGET FOR ENTIRE MODEL
                     AT END OF TIME STEP   90 IN STRESS PERIOD   1
                                      ZONE     2
  -----------------------------------------------------------------------------------

        CUMULATIVE VOLUMES      L**3       RATES FOR THIS TIME STEP      L**3/T
        ------------------                 ------------------------

              IN:                                      IN:
              ---                                      ---
             BOUNDARIES =       7.0831E-14            BOUNDARIES =       7.0463E-13
          CONSTANT HEAD =       1.0937E-03         CONSTANT HEAD =       7.3729E-03
            ZONE CHANGE =       3.9661E-05           ZONE CHANGE =       9.4141E-04
       ZONE CHG TIP/TOE =       2.0773E-07      ZONE CHG TIP/TOE =       1.1105E-06
            ZONE MIXING =           0.0000           ZONE MIXING =           0.0000

               TOTAL IN =       1.1336E-03              TOTAL IN =       8.3154E-03

             OUT:                                     OUT:
             ----                                     ----
             BOUNDARIES =       7.0856E-14            BOUNDARIES =       6.0140E-13
          CONSTANT HEAD =           0.0000         CONSTANT HEAD =           0.0000
            ZONE CHANGE =       1.1181E-03           ZONE CHANGE =       8.3241E-03
       ZONE CHG TIP/TOE =       1.5973E-05      ZONE CHG TIP/TOE =       1.2590E-05
            ZONE MIXING =           0.0000           ZONE MIXING =           0.0000

              TOTAL OUT =       1.1341E-03             TOTAL OUT =       8.3367E-03

               IN - OUT =      -5.1735E-07              IN - OUT =      -2.1254E-05

    PERCENT DISCREPANCY =          -0.05     PERCENT DISCREPANCY =          -0.26


 HEAD WILL BE SAVED ON UNIT   51 AT END OF TIME STEP   90, STRESS PERIOD    1
1
  VOLUMETRIC BUDGET FOR ENTIRE MODEL AT END OF TIME STEP   90, STRESS PERIOD   1
  ------------------------------------------------------------------------------

     CUMULATIVE VOLUMES      L**3       RATES FOR THIS TIME STEP      L**3/T
     ------------------                 ------------------------

           IN:                                      IN:
           ---                                      ---
             STORAGE =       6.8066E-05               STORAGE =       1.8874E-05
       CONSTANT HEAD =       1.7887E-02         CONSTANT HEAD =           0.1641
               WELLS =           0.0000                 WELLS =           0.0000
          SWIADDTOCH =           0.0000            SWIADDTOCH =           0.0000

            TOTAL IN =       1.7955E-02              TOTAL IN =           0.1642

          OUT:                                     OUT:
          ----                                     ----
             STORAGE =       3.9956E-10               STORAGE =       3.1619E-09
       CONSTANT HEAD =           0.0000         CONSTANT HEAD =           0.0000
               WELLS =       1.7955E-02                 WELLS =           0.1642
          SWIADDTOCH =       3.9199E-10            SWIADDTOCH =           0.0000

           TOTAL OUT =       1.7955E-02             TOTAL OUT =           0.1642

            IN - OUT =      -1.1176E-08              IN - OUT =           0.0000

 PERCENT DISCREPANCY =          -0.00     PERCENT DISCREPANCY =           0.00






         TIME SUMMARY AT END OF TIME STEP   90 IN STRESS PERIOD    1
                    SECONDS     MINUTES      HOURS       DAYS        YEARS
                    -----------------------------------------------------------
   TIME STEP LENGTH  105.00      1.7500     2.91667E-02 1.21528E-03 3.32726E-06
 STRESS PERIOD TIME  9450.0      157.50      2.6250     0.10938     2.99453E-04
         TOTAL TIME  9450.0      157.50      2.6250     0.10938     2.99453E-04
1

 SOLVING FOR HEAD 
     2 EXTERNAL ITERATIONS FOR TIME STEP  91 IN STRESS PERIOD    1

 MAXIMUM HEAD CHANGE FOR EACH ITERATION:

     HEAD CHANGE  LAY,ROW,COL      HEAD CHANGE  LAY,ROW,COL  
 ------------------------------------------------------------
    -2.001E-05 (  6,    1, 1000)  -2.327E-07 (  6,    1, 1000)



 OUTPUT CONTROL FOR STRESS PERIOD    1   TIME STEP   91
    PRINT BUDGET
    SAVE HEAD FOR ALL LAYERS
 SOLVING FOR ZETA FOR LAYER     6 ZONE     2
 STRESS PERIOD=  1 TIMESTEP= 91 LAYER=  6 ZONE=  2 ACTIVE CELLS=  989 NUMBER OF EQUATIONS=     989
 UBUDSV SAVING "      ZETASRF  1" ON UNIT 55 AT TIME STEP 91, STRESS PERIOD    1


                      VOLUMETRIC SWI ZONE BUDGET FOR ENTIRE MODEL
                     AT END OF TIME STEP   91 IN STRESS PERIOD   1
                                      ZONE     1
  -----------------------------------------------------------------------------------

        CUMULATIVE VOLUMES      L**3       RATES FOR THIS TIME STEP      L**3/T
        ------------------                 ------------------------

              IN:                                      IN:
              ---                                      ---
             BOUNDARIES =       1.8388E-08            BOUNDARIES =       1.8003E-07
          CONSTANT HEAD =       1.6984E-02         CONSTANT HEAD =           0.1568
            ZONE CHANGE =       1.1961E-03           ZONE CHANGE =       8.1027E-03
       ZONE CHG TIP/TOE =       1.8024E-05      ZONE CHG TIP/TOE =       4.3635E-05
            ZONE MIXING =           0.0000           ZONE MIXING =           0.0000

               TOTAL IN =       1.8198E-02              TOTAL IN =           0.1650

             OUT:                                     OUT:
             ----                                     ----
             BOUNDARIES =       1.8155E-02            BOUNDARIES =           0.1642
          CONSTANT HEAD =           0.0000         CONSTANT HEAD =           0.0000
            ZONE CHANGE =       4.2603E-05           ZONE CHANGE =       7.7692E-04
       ZONE CHG TIP/TOE =       2.0972E-07      ZONE CHG TIP/TOE =       1.6399E-06
            ZONE MIXING =           0.0000           ZONE MIXING =           0.0000

              TOTAL OUT =       1.8197E-02             TOTAL OUT =           0.1649

               IN - OUT =       5.7556E-07              IN - OUT =       2.2009E-05

    PERCENT DISCREPANCY =           0.00     PERCENT DISCREPANCY =           0.01



                      VOLUMETRIC SWI ZONE BUDGET FOR ENTIRE MODEL
                     AT END OF TIME STEP   91 IN STRESS PERIOD   1
                                      ZONE     2
  -----------------------------------------------------------------------------------

        CUMULATIVE VOLUMES      L**3       RATES FOR THIS TIME STEP      L**3/T
        ------------------                 ------------------------

              IN:                                      IN:
              ---                                      ---
             BOUNDARIES =       7.1592E-14            BOUNDARIES =       6.2600E-13
          CONSTANT HEAD =       1.1026E-03         CONSTANT HEAD =       7.3269E-03
            ZONE CHANGE =       4.0570E-05           ZONE CHANGE =       7.4746E-04
       ZONE CHG TIP/TOE =       2.0972E-07      ZONE CHG TIP/TOE =       1.6399E-06
            ZONE MIXING =           0.0000           ZONE MIXING =           0.0000

               TOTAL IN =       1.1434E-03              TOTAL IN =       8.0760E-03

             OUT:                                     OUT:
             ----                                     ----
             BOUNDARIES =       7.1648E-14            BOUNDARIES =       6.5196E-13
          CONSTANT HEAD =           0.0000         CONSTANT HEAD =           0.0000
            ZONE CHANGE =       1.1279E-03           ZONE CHANGE =       8.0835E-03
       ZONE CHG TIP/TOE =       1.5990E-05      ZONE CHG TIP/TOE =       1.4181E-05
            ZONE MIXING =           0.0000           ZONE MIXING =           0.0000

              TOTAL OUT =       1.1439E-03             TOTAL OUT =       8.0977E-03

               IN - OUT =      -5.4366E-07              IN - OUT =      -2.1714E-05

    PERCENT DISCREPANCY =          -0.05     PERCENT DISCREPANCY =          -0.27


 HEAD WILL BE SAVED ON UNIT   51 AT END OF TIME STEP   91, STRESS PERIOD    1
1
  VOLUMETRIC BUDGET FOR ENTIRE MODEL AT END OF TIME STEP   91, STRESS PERIOD   1
  ------------------------------------------------------------------------------

     CUMULATIVE VOLUMES      L**3       RATES FOR THIS TIME STEP      L**3/T
     ------------------                 ------------------------

           IN:                                      IN:
           ---                                      ---
             STORAGE =       6.8089E-05               STORAGE =       1.8855E-05
       CONSTANT HEAD =       1.8086E-02         CONSTANT HEAD =           0.1641
               WELLS =           0.0000                 WELLS =           0.0000
          SWIADDTOCH =           0.0000            SWIADDTOCH =           0.0000

            TOTAL IN =       1.8155E-02              TOTAL IN =           0.1642

          OUT:                                     OUT:
          ----                                     ----
             STORAGE =       4.0453E-10               STORAGE =       4.0874E-09
       CONSTANT HEAD =           0.0000         CONSTANT HEAD =           0.0000
               WELLS =       1.8155E-02                 WELLS =           0.1642
          SWIADDTOCH =       3.9199E-10            SWIADDTOCH =           0.0000

           TOTAL OUT =       1.8155E-02             TOTAL OUT =           0.1642

            IN - OUT =      -1.1176E-08              IN - OUT =      -1.4901E-08

 PERCENT DISCREPANCY =          -0.00     PERCENT DISCREPANCY =          -0.00






         TIME SUMMARY AT END OF TIME STEP   91 IN STRESS PERIOD    1
                    SECONDS     MINUTES      HOURS       DAYS        YEARS
                    -----------------------------------------------------------
   TIME STEP LENGTH  105.00      1.7500     2.91667E-02 1.21528E-03 3.32726E-06
 STRESS PERIOD TIME  9555.0      159.25      2.6542     0.11059     3.02780E-04
         TOTAL TIME  9555.0      159.25      2.6542     0.11059     3.02780E-04
1

 SOLVING FOR HEAD 
     2 EXTERNAL ITERATIONS FOR TIME STEP  92 IN STRESS PERIOD    1

 MAXIMUM HEAD CHANGE FOR EACH ITERATION:

     HEAD CHANGE  LAY,ROW,COL      HEAD CHANGE  LAY,ROW,COL  
 ------------------------------------------------------------
    -1.998E-05 (  6,    1, 1000)  -2.325E-07 (  6,    1, 1000)



 OUTPUT CONTROL FOR STRESS PERIOD    1   TIME STEP   92
    PRINT BUDGET
    SAVE HEAD FOR ALL LAYERS
 SOLVING FOR ZETA FOR LAYER     6 ZONE     2

     492 UPPER PART EQS.       494 LOWER PART EQS.    BAND WIDTH + 1 =    4
 STRESS PERIOD=  1 TIMESTEP= 92 LAYER=  6 ZONE=  2 ACTIVE CELLS=  986 NUMBER OF EQUATIONS=     986
 UBUDSV SAVING "      ZETASRF  1" ON UNIT 55 AT TIME STEP 92, STRESS PERIOD    1


                      VOLUMETRIC SWI ZONE BUDGET FOR ENTIRE MODEL
                     AT END OF TIME STEP   92 IN STRESS PERIOD   1
                                      ZONE     1
  -----------------------------------------------------------------------------------

        CUMULATIVE VOLUMES      L**3       RATES FOR THIS TIME STEP      L**3/T
        ------------------                 ------------------------

              IN:                                      IN:
              ---                                      ---
             BOUNDARIES =       1.8592E-08            BOUNDARIES =       1.6775E-07
          CONSTANT HEAD =       1.7174E-02         CONSTANT HEAD =           0.1569
            ZONE CHANGE =       1.2057E-03           ZONE CHANGE =       7.9245E-03
       ZONE CHG TIP/TOE =       1.8082E-05      ZONE CHG TIP/TOE =       4.7682E-05
            ZONE MIXING =           0.0000           ZONE MIXING =           0.0000

               TOTAL IN =       1.8398E-02              TOTAL IN =           0.1648

             OUT:                                     OUT:
             ----                                     ----
             BOUNDARIES =       1.8354E-02            BOUNDARIES =           0.1642
          CONSTANT HEAD =           0.0000         CONSTANT HEAD =           0.0000
            ZONE CHANGE =       4.3397E-05           ZONE CHANGE =       6.5289E-04
       ZONE CHG TIP/TOE =       2.1160E-07      ZONE CHG TIP/TOE =       1.5454E-06
            ZONE MIXING =           0.0000           ZONE MIXING =           0.0000

              TOTAL OUT =       1.8398E-02             TOTAL OUT =           0.1648

               IN - OUT =       5.9791E-07              IN - OUT =       1.7807E-05

    PERCENT DISCREPANCY =           0.00     PERCENT DISCREPANCY =           0.01



                      VOLUMETRIC SWI ZONE BUDGET FOR ENTIRE MODEL
                     AT END OF TIME STEP   92 IN STRESS PERIOD   1
                                      ZONE     2
  -----------------------------------------------------------------------------------

        CUMULATIVE VOLUMES      L**3       RATES FOR THIS TIME STEP      L**3/T
        ------------------                 ------------------------

              IN:                                      IN:
              ---                                      ---
             BOUNDARIES =       7.2365E-14            BOUNDARIES =       6.3596E-13
          CONSTANT HEAD =       1.1115E-03         CONSTANT HEAD =       7.2811E-03
            ZONE CHANGE =       4.1331E-05           ZONE CHANGE =       6.2636E-04
       ZONE CHG TIP/TOE =       2.1160E-07      ZONE CHG TIP/TOE =       1.5454E-06
            ZONE MIXING =           0.0000           ZONE MIXING =           0.0000

               TOTAL IN =       1.1530E-03              TOTAL IN =       7.9090E-03

             OUT:                                     OUT:
             ----                                     ----
             BOUNDARIES =       7.2427E-14            BOUNDARIES =       6.4078E-13
          CONSTANT HEAD =           0.0000         CONSTANT HEAD =           0.0000
            ZONE CHANGE =       1.1376E-03           ZONE CHANGE =       7.9054E-03
       ZONE CHG TIP/TOE =       1.6016E-05      ZONE CHG TIP/TOE =       2.1153E-05
            ZONE MIXING =           0.0000           ZONE MIXING =           0.0000

              TOTAL OUT =       1.1536E-03             TOTAL OUT =       7.9265E-03

               IN - OUT =      -5.6461E-07              IN - OUT =      -1.7514E-05

    PERCENT DISCREPANCY =          -0.05     PERCENT DISCREPANCY =          -0.22


 HEAD WILL BE SAVED ON UNIT   51 AT END OF TIME STEP   92, STRESS PERIOD    1
1
  VOLUMETRIC BUDGET FOR ENTIRE MODEL AT END OF TIME STEP   92, STRESS PERIOD   1
  ------------------------------------------------------------------------------

     CUMULATIVE VOLUMES      L**3       RATES FOR THIS TIME STEP      L**3/T
     ------------------                 ------------------------

           IN:                                      IN:
           ---                                      ---
             STORAGE =       6.8112E-05               STORAGE =       1.8818E-05
       CONSTANT HEAD =       1.8286E-02         CONSTANT HEAD =           0.1641
               WELLS =           0.0000                 WELLS =           0.0000
          SWIADDTOCH =           0.0000            SWIADDTOCH =           0.0000

            TOTAL IN =       1.8354E-02              TOTAL IN =           0.1642

          OUT:                                     OUT:
          ----                                     ----
             STORAGE =       4.0836E-10               STORAGE =       3.1509E-09
       CONSTANT HEAD =           0.0000         CONSTANT HEAD =           0.0000
               WELLS =       1.8354E-02                 WELLS =           0.1642
          SWIADDTOCH =       3.9199E-10            SWIADDTOCH =           0.0000

           TOTAL OUT =       1.8354E-02             TOTAL OUT =           0.1642

            IN - OUT =      -1.1176E-08              IN - OUT =      -1.4901E-08

 PERCENT DISCREPANCY =          -0.00     PERCENT DISCREPANCY =          -0.00






         TIME SUMMARY AT END OF TIME STEP   92 IN STRESS PERIOD    1
                    SECONDS     MINUTES      HOURS       DAYS        YEARS
                    -----------------------------------------------------------
   TIME STEP LENGTH  105.00      1.7500     2.91667E-02 1.21528E-03 3.32726E-06
 STRESS PERIOD TIME  9660.0      161.00      2.6833     0.11181     3.06107E-04
         TOTAL TIME  9660.0      161.00      2.6833     0.11181     3.06107E-04
1

 SOLVING FOR HEAD 
     2 EXTERNAL ITERATIONS FOR TIME STEP  93 IN STRESS PERIOD    1

 MAXIMUM HEAD CHANGE FOR EACH ITERATION:

     HEAD CHANGE  LAY,ROW,COL      HEAD CHANGE  LAY,ROW,COL  
 ------------------------------------------------------------
    -1.994E-05 (  6,    1, 1000)  -2.317E-07 (  6,    1,  999)



 OUTPUT CONTROL FOR STRESS PERIOD    1   TIME STEP   93
    PRINT BUDGET
    SAVE HEAD FOR ALL LAYERS
 SOLVING FOR ZETA FOR LAYER     6 ZONE     2

     494 UPPER PART EQS.       494 LOWER PART EQS.    BAND WIDTH + 1 =    3
 STRESS PERIOD=  1 TIMESTEP= 93 LAYER=  6 ZONE=  2 ACTIVE CELLS=  988 NUMBER OF EQUATIONS=     988
 UBUDSV SAVING "      ZETASRF  1" ON UNIT 55 AT TIME STEP 93, STRESS PERIOD    1


                      VOLUMETRIC SWI ZONE BUDGET FOR ENTIRE MODEL
                     AT END OF TIME STEP   93 IN STRESS PERIOD   1
                                      ZONE     1
  -----------------------------------------------------------------------------------

        CUMULATIVE VOLUMES      L**3       RATES FOR THIS TIME STEP      L**3/T
        ------------------                 ------------------------

              IN:                                      IN:
              ---                                      ---
             BOUNDARIES =       1.8802E-08            BOUNDARIES =       1.7242E-07
          CONSTANT HEAD =       1.7365E-02         CONSTANT HEAD =           0.1569
            ZONE CHANGE =       1.2152E-03           ZONE CHANGE =       7.8201E-03
       ZONE CHG TIP/TOE =       1.8138E-05      ZONE CHG TIP/TOE =       4.6247E-05
            ZONE MIXING =           0.0000           ZONE MIXING =           0.0000

               TOTAL IN =       1.8598E-02              TOTAL IN =           0.1648

             OUT:                                     OUT:
             ----                                     ----
             BOUNDARIES =       1.8554E-02            BOUNDARIES =           0.1642
          CONSTANT HEAD =           0.0000         CONSTANT HEAD =           0.0000
            ZONE CHANGE =       4.4116E-05           ZONE CHANGE =       5.9187E-04
       ZONE CHG TIP/TOE =       2.1227E-07      ZONE CHG TIP/TOE =       5.5071E-07
            ZONE MIXING =           0.0000           ZONE MIXING =           0.0000

              TOTAL OUT =       1.8598E-02             TOTAL OUT =           0.1648

               IN - OUT =       6.2026E-07              IN - OUT =       1.9819E-05

    PERCENT DISCREPANCY =           0.00     PERCENT DISCREPANCY =           0.01



                      VOLUMETRIC SWI ZONE BUDGET FOR ENTIRE MODEL
                     AT END OF TIME STEP   93 IN STRESS PERIOD   1
                                      ZONE     2
  -----------------------------------------------------------------------------------

        CUMULATIVE VOLUMES      L**3       RATES FOR THIS TIME STEP      L**3/T
        ------------------                 ------------------------

              IN:                                      IN:
              ---                                      ---
             BOUNDARIES =       7.3136E-14            BOUNDARIES =       6.3429E-13
          CONSTANT HEAD =       1.1203E-03         CONSTANT HEAD =       7.2354E-03
            ZONE CHANGE =       4.2016E-05           ZONE CHANGE =       5.6370E-04
       ZONE CHG TIP/TOE =       2.1227E-07      ZONE CHG TIP/TOE =       5.5071E-07
            ZONE MIXING =           0.0000           ZONE MIXING =           0.0000

               TOTAL IN =       1.1625E-03              TOTAL IN =       7.7996E-03

             OUT:                                     OUT:
             ----                                     ----
             BOUNDARIES =       7.3201E-14            BOUNDARIES =       6.3660E-13
          CONSTANT HEAD =           0.0000         CONSTANT HEAD =           0.0000
            ZONE CHANGE =       1.1470E-03           ZONE CHANGE =       7.8011E-03
       ZONE CHG TIP/TOE =       1.6038E-05      ZONE CHG TIP/TOE =       1.8077E-05
            ZONE MIXING =           0.0000           ZONE MIXING =           0.0000

              TOTAL OUT =       1.1631E-03             TOTAL OUT =       7.8192E-03

               IN - OUT =      -5.8836E-07              IN - OUT =      -1.9516E-05

    PERCENT DISCREPANCY =          -0.05     PERCENT DISCREPANCY =          -0.25


 HEAD WILL BE SAVED ON UNIT   51 AT END OF TIME STEP   93, STRESS PERIOD    1
1
  VOLUMETRIC BUDGET FOR ENTIRE MODEL AT END OF TIME STEP   93, STRESS PERIOD   1
  ------------------------------------------------------------------------------

     CUMULATIVE VOLUMES      L**3       RATES FOR THIS TIME STEP      L**3/T
     ------------------                 ------------------------

           IN:                                      IN:
           ---                                      ---
             STORAGE =       6.8134E-05               STORAGE =       1.8768E-05
       CONSTANT HEAD =       1.8485E-02         CONSTANT HEAD =           0.1641
               WELLS =           0.0000                 WELLS =           0.0000
          SWIADDTOCH =           0.0000            SWIADDTOCH =           0.0000

            TOTAL IN =       1.8554E-02              TOTAL IN =           0.1642

          OUT:                                     OUT:
          ----                                     ----
             STORAGE =       4.1218E-10               STORAGE =       3.1467E-09
       CONSTANT HEAD =           0.0000         CONSTANT HEAD =           0.0000
               WELLS =       1.8554E-02                 WELLS =           0.1642
          SWIADDTOCH =       3.9199E-10            SWIADDTOCH =           0.0000

           TOTAL OUT =       1.8554E-02             TOTAL OUT =           0.1642

            IN - OUT =      -1.1176E-08              IN - OUT =      -1.4901E-08

 PERCENT DISCREPANCY =          -0.00     PERCENT DISCREPANCY =          -0.00






         TIME SUMMARY AT END OF TIME STEP   93 IN STRESS PERIOD    1
                    SECONDS     MINUTES      HOURS       DAYS        YEARS
                    -----------------------------------------------------------
   TIME STEP LENGTH  105.00      1.7500     2.91667E-02 1.21528E-03 3.32726E-06
 STRESS PERIOD TIME  9765.0      162.75      2.7125     0.11302     3.09435E-04
         TOTAL TIME  9765.0      162.75      2.7125     0.11302     3.09435E-04
1

 SOLVING FOR HEAD 
     2 EXTERNAL ITERATIONS FOR TIME STEP  94 IN STRESS PERIOD    1

 MAXIMUM HEAD CHANGE FOR EACH ITERATION:

     HEAD CHANGE  LAY,ROW,COL      HEAD CHANGE  LAY,ROW,COL  
 ------------------------------------------------------------
    -1.992E-05 (  6,    1, 1000)  -2.314E-07 (  6,    1,  999)



 OUTPUT CONTROL FOR STRESS PERIOD    1   TIME STEP   94
    PRINT BUDGET
    SAVE HEAD FOR ALL LAYERS
 SOLVING FOR ZETA FOR LAYER     6 ZONE     2

     492 UPPER PART EQS.       495 LOWER PART EQS.    BAND WIDTH + 1 =    3
 STRESS PERIOD=  1 TIMESTEP= 94 LAYER=  6 ZONE=  2 ACTIVE CELLS=  987 NUMBER OF EQUATIONS=     987
 UBUDSV SAVING "      ZETASRF  1" ON UNIT 55 AT TIME STEP 94, STRESS PERIOD    1


                      VOLUMETRIC SWI ZONE BUDGET FOR ENTIRE MODEL
                     AT END OF TIME STEP   94 IN STRESS PERIOD   1
                                      ZONE     1
  -----------------------------------------------------------------------------------

        CUMULATIVE VOLUMES      L**3       RATES FOR THIS TIME STEP      L**3/T
        ------------------                 ------------------------

              IN:                                      IN:
              ---                                      ---
             BOUNDARIES =       1.9018E-08            BOUNDARIES =       1.7770E-07
          CONSTANT HEAD =       1.7556E-02         CONSTANT HEAD =           0.1570
            ZONE CHANGE =       1.2246E-03           ZONE CHANGE =       7.7230E-03
       ZONE CHG TIP/TOE =       1.8195E-05      ZONE CHG TIP/TOE =       4.6519E-05
            ZONE MIXING =           0.0000           ZONE MIXING =           0.0000

               TOTAL IN =       1.8799E-02              TOTAL IN =           0.1647

             OUT:                                     OUT:
             ----                                     ----
             BOUNDARIES =       1.8753E-02            BOUNDARIES =           0.1642
          CONSTANT HEAD =           0.0000         CONSTANT HEAD =           0.0000
            ZONE CHANGE =       4.4776E-05           ZONE CHANGE =       5.4313E-04
       ZONE CHG TIP/TOE =       2.1285E-07      ZONE CHG TIP/TOE =       4.7691E-07
            ZONE MIXING =           0.0000           ZONE MIXING =           0.0000

              TOTAL OUT =       1.8798E-02             TOTAL OUT =           0.1647

               IN - OUT =       6.4261E-07              IN - OUT =       1.7583E-05

    PERCENT DISCREPANCY =           0.00     PERCENT DISCREPANCY =           0.01



                      VOLUMETRIC SWI ZONE BUDGET FOR ENTIRE MODEL
                     AT END OF TIME STEP   94 IN STRESS PERIOD   1
                                      ZONE     2
  -----------------------------------------------------------------------------------

        CUMULATIVE VOLUMES      L**3       RATES FOR THIS TIME STEP      L**3/T
        ------------------                 ------------------------

              IN:                                      IN:
              ---                                      ---
             BOUNDARIES =       7.3932E-14            BOUNDARIES =       6.5540E-13
          CONSTANT HEAD =       1.1290E-03         CONSTANT HEAD =       7.1896E-03
            ZONE CHANGE =       4.2644E-05           ZONE CHANGE =       5.1662E-04
       ZONE CHG TIP/TOE =       2.1285E-07      ZONE CHG TIP/TOE =       4.7691E-07
            ZONE MIXING =           0.0000           ZONE MIXING =           0.0000

               TOTAL IN =       1.1719E-03              TOTAL IN =       7.7067E-03

             OUT:                                     OUT:
             ----                                     ----
             BOUNDARIES =       7.3990E-14            BOUNDARIES =       6.4944E-13
          CONSTANT HEAD =           0.0000         CONSTANT HEAD =           0.0000
            ZONE CHANGE =       1.1564E-03           ZONE CHANGE =       7.7040E-03
       ZONE CHG TIP/TOE =       1.6062E-05      ZONE CHG TIP/TOE =       2.0016E-05
            ZONE MIXING =           0.0000           ZONE MIXING =           0.0000

              TOTAL OUT =       1.1725E-03             TOTAL OUT =       7.7240E-03

               IN - OUT =      -6.0943E-07              IN - OUT =      -1.7297E-05

    PERCENT DISCREPANCY =          -0.05     PERCENT DISCREPANCY =          -0.22


 HEAD WILL BE SAVED ON UNIT   51 AT END OF TIME STEP   94, STRESS PERIOD    1
1
  VOLUMETRIC BUDGET FOR ENTIRE MODEL AT END OF TIME STEP   94, STRESS PERIOD   1
  ------------------------------------------------------------------------------

     CUMULATIVE VOLUMES      L**3       RATES FOR THIS TIME STEP      L**3/T
     ------------------                 ------------------------

           IN:                                      IN:
           ---                                      ---
             STORAGE =       6.8157E-05               STORAGE =       1.8735E-05
       CONSTANT HEAD =       1.8685E-02         CONSTANT HEAD =           0.1641
               WELLS =           0.0000                 WELLS =           0.0000
          SWIADDTOCH =           0.0000            SWIADDTOCH =           0.0000

            TOTAL IN =       1.8753E-02              TOTAL IN =           0.1642

          OUT:                                     OUT:
          ----                                     ----
             STORAGE =       4.1713E-10               STORAGE =       4.0736E-09
       CONSTANT HEAD =           0.0000         CONSTANT HEAD =           0.0000
               WELLS =       1.8753E-02                 WELLS =           0.1642
          SWIADDTOCH =       3.9199E-10            SWIADDTOCH =           0.0000

           TOTAL OUT =       1.8753E-02             TOTAL OUT =           0.1642

            IN - OUT =      -9.3132E-09              IN - OUT =      -2.9802E-08

 PERCENT DISCREPANCY =          -0.00     PERCENT DISCREPANCY =          -0.00






         TIME SUMMARY AT END OF TIME STEP   94 IN STRESS PERIOD    1
                    SECONDS     MINUTES      HOURS       DAYS        YEARS
                    -----------------------------------------------------------
   TIME STEP LENGTH  105.00      1.7500     2.91667E-02 1.21528E-03 3.32726E-06
 STRESS PERIOD TIME  9870.0      164.50      2.7417     0.11424     3.12762E-04
         TOTAL TIME  9870.0      164.50      2.7417     0.11424     3.12762E-04
1

 SOLVING FOR HEAD 
     2 EXTERNAL ITERATIONS FOR TIME STEP  95 IN STRESS PERIOD    1

 MAXIMUM HEAD CHANGE FOR EACH ITERATION:

     HEAD CHANGE  LAY,ROW,COL      HEAD CHANGE  LAY,ROW,COL  
 ------------------------------------------------------------
    -1.989E-05 (  6,    1, 1000)  -2.310E-07 (  6,    1, 1000)



 OUTPUT CONTROL FOR STRESS PERIOD    1   TIME STEP   95
    PRINT BUDGET
    SAVE HEAD FOR ALL LAYERS
 SOLVING FOR ZETA FOR LAYER     6 ZONE     2

     495 UPPER PART EQS.       493 LOWER PART EQS.    BAND WIDTH + 1 =    4
 STRESS PERIOD=  1 TIMESTEP= 95 LAYER=  6 ZONE=  2 ACTIVE CELLS=  988 NUMBER OF EQUATIONS=     988
 UBUDSV SAVING "      ZETASRF  1" ON UNIT 55 AT TIME STEP 95, STRESS PERIOD    1


                      VOLUMETRIC SWI ZONE BUDGET FOR ENTIRE MODEL
                     AT END OF TIME STEP   95 IN STRESS PERIOD   1
                                      ZONE     1
  -----------------------------------------------------------------------------------

        CUMULATIVE VOLUMES      L**3       RATES FOR THIS TIME STEP      L**3/T
        ------------------                 ------------------------

              IN:                                      IN:
              ---                                      ---
             BOUNDARIES =       1.9239E-08            BOUNDARIES =       1.8178E-07
          CONSTANT HEAD =       1.7747E-02         CONSTANT HEAD =           0.1570
            ZONE CHANGE =       1.2339E-03           ZONE CHANGE =       7.6250E-03
       ZONE CHG TIP/TOE =       1.8250E-05      ZONE CHG TIP/TOE =       4.4945E-05
            ZONE MIXING =           0.0000           ZONE MIXING =           0.0000

               TOTAL IN =       1.8999E-02              TOTAL IN =           0.1647

             OUT:                                     OUT:
             ----                                     ----
             BOUNDARIES =       1.8953E-02            BOUNDARIES =           0.1642
          CONSTANT HEAD =           0.0000         CONSTANT HEAD =           0.0000
            ZONE CHANGE =       4.5376E-05           ZONE CHANGE =       4.9389E-04
       ZONE CHG TIP/TOE =       2.1403E-07      ZONE CHG TIP/TOE =       9.7082E-07
            ZONE MIXING =           0.0000           ZONE MIXING =           0.0000

              TOTAL OUT =       1.8998E-02             TOTAL OUT =           0.1647

               IN - OUT =       6.5938E-07              IN - OUT =       1.2651E-05

    PERCENT DISCREPANCY =           0.00     PERCENT DISCREPANCY =           0.01



                      VOLUMETRIC SWI ZONE BUDGET FOR ENTIRE MODEL
                     AT END OF TIME STEP   95 IN STRESS PERIOD   1
                                      ZONE     2
  -----------------------------------------------------------------------------------

        CUMULATIVE VOLUMES      L**3       RATES FOR THIS TIME STEP      L**3/T
        ------------------                 ------------------------

              IN:                                      IN:
              ---                                      ---
             BOUNDARIES =       7.4746E-14            BOUNDARIES =       6.6998E-13
          CONSTANT HEAD =       1.1377E-03         CONSTANT HEAD =       7.1438E-03
            ZONE CHANGE =       4.3216E-05           ZONE CHANGE =       4.7069E-04
       ZONE CHG TIP/TOE =       2.1403E-07      ZONE CHG TIP/TOE =       9.7082E-07
            ZONE MIXING =           0.0000           ZONE MIXING =           0.0000

               TOTAL IN =       1.1811E-03              TOTAL IN =       7.6154E-03

             OUT:                                     OUT:
             ----                                     ----
             BOUNDARIES =       7.4767E-14            BOUNDARIES =       6.3956E-13
          CONSTANT HEAD =           0.0000         CONSTANT HEAD =           0.0000
            ZONE CHANGE =       1.1656E-03           ZONE CHANGE =       7.6060E-03
       ZONE CHG TIP/TOE =       1.6089E-05      ZONE CHG TIP/TOE =       2.1747E-05
            ZONE MIXING =           0.0000           ZONE MIXING =           0.0000

              TOTAL OUT =       1.1817E-03             TOTAL OUT =       7.6278E-03

               IN - OUT =      -6.2457E-07              IN - OUT =      -1.2331E-05

    PERCENT DISCREPANCY =          -0.05     PERCENT DISCREPANCY =          -0.16


 HEAD WILL BE SAVED ON UNIT   51 AT END OF TIME STEP   95, STRESS PERIOD    1
1
  VOLUMETRIC BUDGET FOR ENTIRE MODEL AT END OF TIME STEP   95, STRESS PERIOD   1
  ------------------------------------------------------------------------------

     CUMULATIVE VOLUMES      L**3       RATES FOR THIS TIME STEP      L**3/T
     ------------------                 ------------------------

           IN:                                      IN:
           ---                                      ---
             STORAGE =       6.8180E-05               STORAGE =       1.8679E-05
       CONSTANT HEAD =       1.8884E-02         CONSTANT HEAD =           0.1641
               WELLS =           0.0000                 WELLS =           0.0000
          SWIADDTOCH =           0.0000            SWIADDTOCH =           0.0000

            TOTAL IN =       1.8953E-02              TOTAL IN =           0.1642

          OUT:                                     OUT:
          ----                                     ----
             STORAGE =       4.2208E-10               STORAGE =       4.0694E-09
       CONSTANT HEAD =           0.0000         CONSTANT HEAD =           0.0000
               WELLS =       1.8953E-02                 WELLS =           0.1642
          SWIADDTOCH =       4.4540E-10            SWIADDTOCH =       4.3946E-08

           TOTAL OUT =       1.8953E-02             TOTAL OUT =           0.1642

            IN - OUT =      -9.3132E-09              IN - OUT =      -2.9802E-08

 PERCENT DISCREPANCY =          -0.00     PERCENT DISCREPANCY =          -0.00






         TIME SUMMARY AT END OF TIME STEP   95 IN STRESS PERIOD    1
                    SECONDS     MINUTES      HOURS       DAYS        YEARS
                    -----------------------------------------------------------
   TIME STEP LENGTH  105.00      1.7500     2.91667E-02 1.21528E-03 3.32726E-06
 STRESS PERIOD TIME  9975.0      166.25      2.7708     0.11545     3.16089E-04
         TOTAL TIME  9975.0      166.25      2.7708     0.11545     3.16089E-04
1

 SOLVING FOR HEAD 
     2 EXTERNAL ITERATIONS FOR TIME STEP  96 IN STRESS PERIOD    1

 MAXIMUM HEAD CHANGE FOR EACH ITERATION:

     HEAD CHANGE  LAY,ROW,COL      HEAD CHANGE  LAY,ROW,COL  
 ------------------------------------------------------------
    -1.986E-05 (  6,    1, 1000)  -2.305E-07 (  6,    1, 1000)



 OUTPUT CONTROL FOR STRESS PERIOD    1   TIME STEP   96
    PRINT BUDGET
    SAVE HEAD FOR ALL LAYERS
 SOLVING FOR ZETA FOR LAYER     6 ZONE     2

     494 UPPER PART EQS.       495 LOWER PART EQS.    BAND WIDTH + 1 =    3
 STRESS PERIOD=  1 TIMESTEP= 96 LAYER=  6 ZONE=  2 ACTIVE CELLS=  989 NUMBER OF EQUATIONS=     989
 UBUDSV SAVING "      ZETASRF  1" ON UNIT 55 AT TIME STEP 96, STRESS PERIOD    1


                      VOLUMETRIC SWI ZONE BUDGET FOR ENTIRE MODEL
                     AT END OF TIME STEP   96 IN STRESS PERIOD   1
                                      ZONE     1
  -----------------------------------------------------------------------------------

        CUMULATIVE VOLUMES      L**3       RATES FOR THIS TIME STEP      L**3/T
        ------------------                 ------------------------

              IN:                                      IN:
              ---                                      ---
             BOUNDARIES =       1.9439E-08            BOUNDARIES =       1.6464E-07
          CONSTANT HEAD =       1.7938E-02         CONSTANT HEAD =           0.1570
            ZONE CHANGE =       1.2430E-03           ZONE CHANGE =       7.5549E-03
       ZONE CHG TIP/TOE =       1.8295E-05      ZONE CHG TIP/TOE =       3.7663E-05
            ZONE MIXING =           0.0000           ZONE MIXING =           0.0000

               TOTAL IN =       1.9199E-02              TOTAL IN =           0.1646

             OUT:                                     OUT:
             ----                                     ----
             BOUNDARIES =       1.9152E-02            BOUNDARIES =           0.1642
          CONSTANT HEAD =           0.0000         CONSTANT HEAD =           0.0000
            ZONE CHANGE =       4.5940E-05           ZONE CHANGE =       4.6396E-04
       ZONE CHG TIP/TOE =       2.1635E-07      ZONE CHG TIP/TOE =       1.9084E-06
            ZONE MIXING =           0.0000           ZONE MIXING =           0.0000

              TOTAL OUT =       1.9198E-02             TOTAL OUT =           0.1646

               IN - OUT =       6.7055E-07              IN - OUT =       1.0014E-05

    PERCENT DISCREPANCY =           0.00     PERCENT DISCREPANCY =           0.01



                      VOLUMETRIC SWI ZONE BUDGET FOR ENTIRE MODEL
                     AT END OF TIME STEP   96 IN STRESS PERIOD   1
                                      ZONE     2
  -----------------------------------------------------------------------------------

        CUMULATIVE VOLUMES      L**3       RATES FOR THIS TIME STEP      L**3/T
        ------------------                 ------------------------

              IN:                                      IN:
              ---                                      ---
             BOUNDARIES =       7.5509E-14            BOUNDARIES =       6.2794E-13
          CONSTANT HEAD =       1.1463E-03         CONSTANT HEAD =       7.0981E-03
            ZONE CHANGE =       4.3753E-05           ZONE CHANGE =       4.4171E-04
       ZONE CHG TIP/TOE =       2.1635E-07      ZONE CHG TIP/TOE =       1.9084E-06
            ZONE MIXING =           0.0000           ZONE MIXING =           0.0000

               TOTAL IN =       1.1903E-03              TOTAL IN =       7.5417E-03

             OUT:                                     OUT:
             ----                                     ----
             BOUNDARIES =       7.5550E-14            BOUNDARIES =       6.4377E-13
          CONSTANT HEAD =           0.0000         CONSTANT HEAD =           0.0000
            ZONE CHANGE =       1.1748E-03           ZONE CHANGE =       7.5360E-03
       ZONE CHG TIP/TOE =       1.6108E-05      ZONE CHG TIP/TOE =       1.5413E-05
            ZONE MIXING =           0.0000           ZONE MIXING =           0.0000

              TOTAL OUT =       1.1909E-03             TOTAL OUT =       7.5514E-03

               IN - OUT =      -6.3633E-07              IN - OUT =      -9.6867E-06

    PERCENT DISCREPANCY =          -0.05     PERCENT DISCREPANCY =          -0.13


 HEAD WILL BE SAVED ON UNIT   51 AT END OF TIME STEP   96, STRESS PERIOD    1
1
  VOLUMETRIC BUDGET FOR ENTIRE MODEL AT END OF TIME STEP   96, STRESS PERIOD   1
  ------------------------------------------------------------------------------

     CUMULATIVE VOLUMES      L**3       RATES FOR THIS TIME STEP      L**3/T
     ------------------                 ------------------------

           IN:                                      IN:
           ---                                      ---
             STORAGE =       6.8203E-05               STORAGE =       1.8643E-05
       CONSTANT HEAD =       1.9084E-02         CONSTANT HEAD =           0.1641
               WELLS =           0.0000                 WELLS =           0.0000
          SWIADDTOCH =           0.0000            SWIADDTOCH =           0.0000

            TOTAL IN =       1.9152E-02              TOTAL IN =           0.1642

          OUT:                                     OUT:
          ----                                     ----
             STORAGE =       4.2815E-10               STORAGE =       4.9966E-09
       CONSTANT HEAD =           0.0000         CONSTANT HEAD =           0.0000
               WELLS =       1.9152E-02                 WELLS =           0.1642
          SWIADDTOCH =       4.4540E-10            SWIADDTOCH =           0.0000

           TOTAL OUT =       1.9152E-02             TOTAL OUT =           0.1642

            IN - OUT =      -9.3132E-09              IN - OUT =           0.0000

 PERCENT DISCREPANCY =          -0.00     PERCENT DISCREPANCY =           0.00






         TIME SUMMARY AT END OF TIME STEP   96 IN STRESS PERIOD    1
                    SECONDS     MINUTES      HOURS       DAYS        YEARS
                    -----------------------------------------------------------
   TIME STEP LENGTH  105.00      1.7500     2.91667E-02 1.21528E-03 3.32726E-06
 STRESS PERIOD TIME  10080.      168.00      2.8000     0.11667     3.19416E-04
         TOTAL TIME  10080.      168.00      2.8000     0.11667     3.19416E-04
1

 SOLVING FOR HEAD 
     2 EXTERNAL ITERATIONS FOR TIME STEP  97 IN STRESS PERIOD    1

 MAXIMUM HEAD CHANGE FOR EACH ITERATION:

     HEAD CHANGE  LAY,ROW,COL      HEAD CHANGE  LAY,ROW,COL  
 ------------------------------------------------------------
    -1.982E-05 (  6,    1, 1000)  -2.297E-07 (  6,    1, 1000)



 OUTPUT CONTROL FOR STRESS PERIOD    1   TIME STEP   97
    PRINT BUDGET
    SAVE HEAD FOR ALL LAYERS
 SOLVING FOR ZETA FOR LAYER     6 ZONE     2

     492 UPPER PART EQS.       494 LOWER PART EQS.    BAND WIDTH + 1 =    3
 STRESS PERIOD=  1 TIMESTEP= 97 LAYER=  6 ZONE=  2 ACTIVE CELLS=  986 NUMBER OF EQUATIONS=     986
 UBUDSV SAVING "      ZETASRF  1" ON UNIT 55 AT TIME STEP 97, STRESS PERIOD    1


                      VOLUMETRIC SWI ZONE BUDGET FOR ENTIRE MODEL
                     AT END OF TIME STEP   97 IN STRESS PERIOD   1
                                      ZONE     1
  -----------------------------------------------------------------------------------

        CUMULATIVE VOLUMES      L**3       RATES FOR THIS TIME STEP      L**3/T
        ------------------                 ------------------------

              IN:                                      IN:
              ---                                      ---
             BOUNDARIES =       1.9642E-08            BOUNDARIES =       1.6761E-07
          CONSTANT HEAD =       1.8128E-02         CONSTANT HEAD =           0.1571
            ZONE CHANGE =       1.2521E-03           ZONE CHANGE =       7.4505E-03
       ZONE CHG TIP/TOE =       1.8335E-05      ZONE CHG TIP/TOE =       3.2514E-05
            ZONE MIXING =           0.0000           ZONE MIXING =           0.0000

               TOTAL IN =       1.9399E-02              TOTAL IN =           0.1646

             OUT:                                     OUT:
             ----                                     ----
             BOUNDARIES =       1.9352E-02            BOUNDARIES =           0.1642
          CONSTANT HEAD =           0.0000         CONSTANT HEAD =           0.0000
            ZONE CHANGE =       4.6436E-05           ZONE CHANGE =       4.0786E-04
       ZONE CHG TIP/TOE =       2.1975E-07      ZONE CHG TIP/TOE =       2.8005E-06
            ZONE MIXING =           0.0000           ZONE MIXING =           0.0000

              TOTAL OUT =       1.9398E-02             TOTAL OUT =           0.1646

               IN - OUT =       6.7241E-07              IN - OUT =       1.3411E-06

    PERCENT DISCREPANCY =           0.00     PERCENT DISCREPANCY =           0.00



                      VOLUMETRIC SWI ZONE BUDGET FOR ENTIRE MODEL
                     AT END OF TIME STEP   97 IN STRESS PERIOD   1
                                      ZONE     2
  -----------------------------------------------------------------------------------

        CUMULATIVE VOLUMES      L**3       RATES FOR THIS TIME STEP      L**3/T
        ------------------                 ------------------------

              IN:                                      IN:
              ---                                      ---
             BOUNDARIES =       7.6266E-14            BOUNDARIES =       6.2247E-13
          CONSTANT HEAD =       1.1549E-03         CONSTANT HEAD =       7.0524E-03
            ZONE CHANGE =       4.4229E-05           ZONE CHANGE =       3.9226E-04
       ZONE CHG TIP/TOE =       2.1975E-07      ZONE CHG TIP/TOE =       2.8005E-06
            ZONE MIXING =           0.0000           ZONE MIXING =           0.0000

               TOTAL IN =       1.1993E-03              TOTAL IN =       7.4474E-03

             OUT:                                     OUT:
             ----                                     ----
             BOUNDARIES =       7.6401E-14            BOUNDARIES =       7.0083E-13
          CONSTANT HEAD =           0.0000         CONSTANT HEAD =           0.0000
            ZONE CHANGE =       1.1838E-03           ZONE CHANGE =       7.4316E-03
       ZONE CHG TIP/TOE =       1.6128E-05      ZONE CHG TIP/TOE =       1.6910E-05
            ZONE MIXING =           0.0000           ZONE MIXING =           0.0000

              TOTAL OUT =       1.2000E-03             TOTAL OUT =       7.4485E-03

               IN - OUT =      -6.3749E-07              IN - OUT =      -1.0370E-06

    PERCENT DISCREPANCY =          -0.05     PERCENT DISCREPANCY =          -0.01


 HEAD WILL BE SAVED ON UNIT   51 AT END OF TIME STEP   97, STRESS PERIOD    1
1
  VOLUMETRIC BUDGET FOR ENTIRE MODEL AT END OF TIME STEP   97, STRESS PERIOD   1
  ------------------------------------------------------------------------------

     CUMULATIVE VOLUMES      L**3       RATES FOR THIS TIME STEP      L**3/T
     ------------------                 ------------------------

           IN:                                      IN:
           ---                                      ---
             STORAGE =       6.8225E-05               STORAGE =       1.8585E-05
       CONSTANT HEAD =       1.9283E-02         CONSTANT HEAD =           0.1641
               WELLS =           0.0000                 WELLS =           0.0000
          SWIADDTOCH =           0.0000            SWIADDTOCH =           0.0000

            TOTAL IN =       1.9352E-02              TOTAL IN =           0.1642

          OUT:                                     OUT:
          ----                                     ----
             STORAGE =       4.3195E-10               STORAGE =       3.1304E-09
       CONSTANT HEAD =           0.0000         CONSTANT HEAD =           0.0000
               WELLS =       1.9352E-02                 WELLS =           0.1642
          SWIADDTOCH =       4.4540E-10            SWIADDTOCH =           0.0000

           TOTAL OUT =       1.9352E-02             TOTAL OUT =           0.1642

            IN - OUT =      -9.3132E-09              IN - OUT =      -1.4901E-08

 PERCENT DISCREPANCY =          -0.00     PERCENT DISCREPANCY =          -0.00






         TIME SUMMARY AT END OF TIME STEP   97 IN STRESS PERIOD    1
                    SECONDS     MINUTES      HOURS       DAYS        YEARS
                    -----------------------------------------------------------
   TIME STEP LENGTH  105.00      1.7500     2.91667E-02 1.21528E-03 3.32726E-06
 STRESS PERIOD TIME  10185.      169.75      2.8292     0.11788     3.22744E-04
         TOTAL TIME  10185.      169.75      2.8292     0.11788     3.22744E-04
1

 SOLVING FOR HEAD 
     2 EXTERNAL ITERATIONS FOR TIME STEP  98 IN STRESS PERIOD    1

 MAXIMUM HEAD CHANGE FOR EACH ITERATION:

     HEAD CHANGE  LAY,ROW,COL      HEAD CHANGE  LAY,ROW,COL  
 ------------------------------------------------------------
    -1.981E-05 (  6,    1, 1000)  -2.296E-07 (  6,    1, 1000)



 OUTPUT CONTROL FOR STRESS PERIOD    1   TIME STEP   98
    PRINT BUDGET
    SAVE HEAD FOR ALL LAYERS
 SOLVING FOR ZETA FOR LAYER     6 ZONE     2

     496 UPPER PART EQS.       494 LOWER PART EQS.    BAND WIDTH + 1 =    5
 STRESS PERIOD=  1 TIMESTEP= 98 LAYER=  6 ZONE=  2 ACTIVE CELLS=  990 NUMBER OF EQUATIONS=     990
 UBUDSV SAVING "      ZETASRF  1" ON UNIT 55 AT TIME STEP 98, STRESS PERIOD    1


                      VOLUMETRIC SWI ZONE BUDGET FOR ENTIRE MODEL
                     AT END OF TIME STEP   98 IN STRESS PERIOD   1
                                      ZONE     1
  -----------------------------------------------------------------------------------

        CUMULATIVE VOLUMES      L**3       RATES FOR THIS TIME STEP      L**3/T
        ------------------                 ------------------------

              IN:                                      IN:
              ---                                      ---
             BOUNDARIES =       1.9834E-08            BOUNDARIES =       1.5734E-07
          CONSTANT HEAD =       1.8319E-02         CONSTANT HEAD =           0.1571
            ZONE CHANGE =       1.2610E-03           ZONE CHANGE =       7.3683E-03
       ZONE CHG TIP/TOE =       1.8376E-05      ZONE CHG TIP/TOE =       3.3415E-05
            ZONE MIXING =           0.0000           ZONE MIXING =           0.0000

               TOTAL IN =       1.9599E-02              TOTAL IN =           0.1645

             OUT:                                     OUT:
             ----                                     ----
             BOUNDARIES =       1.9551E-02            BOUNDARIES =           0.1642
          CONSTANT HEAD =           0.0000         CONSTANT HEAD =           0.0000
            ZONE CHANGE =       4.6887E-05           ZONE CHANGE =       3.7089E-04
       ZONE CHG TIP/TOE =       2.2195E-07      ZONE CHG TIP/TOE =       1.8121E-06
            ZONE MIXING =           0.0000           ZONE MIXING =           0.0000

              TOTAL OUT =       1.9598E-02             TOTAL OUT =           0.1645

               IN - OUT =       6.7800E-07              IN - OUT =       3.5465E-06

    PERCENT DISCREPANCY =           0.00     PERCENT DISCREPANCY =           0.00



                      VOLUMETRIC SWI ZONE BUDGET FOR ENTIRE MODEL
                     AT END OF TIME STEP   98 IN STRESS PERIOD   1
                                      ZONE     2
  -----------------------------------------------------------------------------------

        CUMULATIVE VOLUMES      L**3       RATES FOR THIS TIME STEP      L**3/T
        ------------------                 ------------------------

              IN:                                      IN:
              ---                                      ---
             BOUNDARIES =       7.6979E-14            BOUNDARIES =       5.8671E-13
          CONSTANT HEAD =       1.1634E-03         CONSTANT HEAD =       7.0070E-03
            ZONE CHANGE =       4.4659E-05           ZONE CHANGE =       3.5379E-04
       ZONE CHG TIP/TOE =       2.2195E-07      ZONE CHG TIP/TOE =       1.8121E-06
            ZONE MIXING =           0.0000           ZONE MIXING =           0.0000

               TOTAL IN =       1.2083E-03              TOTAL IN =       7.3626E-03

             OUT:                                     OUT:
             ----                                     ----
             BOUNDARIES =       7.7244E-14            BOUNDARIES =       6.9367E-13
          CONSTANT HEAD =           0.0000         CONSTANT HEAD =           0.0000
            ZONE CHANGE =       1.1928E-03           ZONE CHANGE =       7.3495E-03
       ZONE CHG TIP/TOE =       1.6148E-05      ZONE CHG TIP/TOE =       1.6311E-05
            ZONE MIXING =           0.0000           ZONE MIXING =           0.0000

              TOTAL OUT =       1.2089E-03             TOTAL OUT =       7.3658E-03

               IN - OUT =      -6.4133E-07              IN - OUT =      -3.2480E-06

    PERCENT DISCREPANCY =          -0.05     PERCENT DISCREPANCY =          -0.04


 HEAD WILL BE SAVED ON UNIT   51 AT END OF TIME STEP   98, STRESS PERIOD    1
1
  VOLUMETRIC BUDGET FOR ENTIRE MODEL AT END OF TIME STEP   98, STRESS PERIOD   1
  ------------------------------------------------------------------------------

     CUMULATIVE VOLUMES      L**3       RATES FOR THIS TIME STEP      L**3/T
     ------------------                 ------------------------

           IN:                                      IN:
           ---                                      ---
             STORAGE =       6.8248E-05               STORAGE =       1.8535E-05
       CONSTANT HEAD =       1.9483E-02         CONSTANT HEAD =           0.1641
               WELLS =           0.0000                 WELLS =           0.0000
          SWIADDTOCH =           0.0000            SWIADDTOCH =           0.0000

            TOTAL IN =       1.9551E-02              TOTAL IN =           0.1642

          OUT:                                     OUT:
          ----                                     ----
             STORAGE =       4.4028E-10               STORAGE =       6.8512E-09
       CONSTANT HEAD =           0.0000         CONSTANT HEAD =           0.0000
               WELLS =       1.9551E-02                 WELLS =           0.1642
          SWIADDTOCH =       4.4540E-10            SWIADDTOCH =           0.0000

           TOTAL OUT =       1.9551E-02             TOTAL OUT =           0.1642

            IN - OUT =      -9.3132E-09              IN - OUT =           0.0000

 PERCENT DISCREPANCY =          -0.00     PERCENT DISCREPANCY =           0.00






         TIME SUMMARY AT END OF TIME STEP   98 IN STRESS PERIOD    1
                    SECONDS     MINUTES      HOURS       DAYS        YEARS
                    -----------------------------------------------------------
   TIME STEP LENGTH  105.00      1.7500     2.91667E-02 1.21528E-03 3.32726E-06
 STRESS PERIOD TIME  10290.      171.50      2.8583     0.11910     3.26071E-04
         TOTAL TIME  10290.      171.50      2.8583     0.11910     3.26071E-04
1

 SOLVING FOR HEAD 
     2 EXTERNAL ITERATIONS FOR TIME STEP  99 IN STRESS PERIOD    1

 MAXIMUM HEAD CHANGE FOR EACH ITERATION:

     HEAD CHANGE  LAY,ROW,COL      HEAD CHANGE  LAY,ROW,COL  
 ------------------------------------------------------------
    -1.978E-05 (  6,    1, 1000)  -2.288E-07 (  6,    1, 1000)



 OUTPUT CONTROL FOR STRESS PERIOD    1   TIME STEP   99
    PRINT BUDGET
    SAVE HEAD FOR ALL LAYERS
 SOLVING FOR ZETA FOR LAYER     6 ZONE     2

     493 UPPER PART EQS.       493 LOWER PART EQS.    BAND WIDTH + 1 =    3
 STRESS PERIOD=  1 TIMESTEP= 99 LAYER=  6 ZONE=  2 ACTIVE CELLS=  986 NUMBER OF EQUATIONS=     986
 UBUDSV SAVING "      ZETASRF  1" ON UNIT 55 AT TIME STEP 99, STRESS PERIOD    1


                      VOLUMETRIC SWI ZONE BUDGET FOR ENTIRE MODEL
                     AT END OF TIME STEP   99 IN STRESS PERIOD   1
                                      ZONE     1
  -----------------------------------------------------------------------------------

        CUMULATIVE VOLUMES      L**3       RATES FOR THIS TIME STEP      L**3/T
        ------------------                 ------------------------

              IN:                                      IN:
              ---                                      ---
             BOUNDARIES =       2.0031E-08            BOUNDARIES =       1.6212E-07
          CONSTANT HEAD =       1.8510E-02         CONSTANT HEAD =           0.1572
            ZONE CHANGE =       1.2699E-03           ZONE CHANGE =       7.3022E-03
       ZONE CHG TIP/TOE =       1.8410E-05      ZONE CHG TIP/TOE =       2.8426E-05
            ZONE MIXING =           0.0000           ZONE MIXING =           0.0000

               TOTAL IN =       1.9799E-02              TOTAL IN =           0.1645

             OUT:                                     OUT:
             ----                                     ----
             BOUNDARIES =       1.9751E-02            BOUNDARIES =           0.1642
          CONSTANT HEAD =           0.0000         CONSTANT HEAD =           0.0000
            ZONE CHANGE =       4.7315E-05           ZONE CHANGE =       3.5284E-04
       ZONE CHG TIP/TOE =       2.2460E-07      ZONE CHG TIP/TOE =       2.1775E-06
            ZONE MIXING =           0.0000           ZONE MIXING =           0.0000

              TOTAL OUT =       1.9798E-02             TOTAL OUT =           0.1645

               IN - OUT =       6.7241E-07              IN - OUT =      -4.1872E-06

    PERCENT DISCREPANCY =           0.00     PERCENT DISCREPANCY =          -0.00



                      VOLUMETRIC SWI ZONE BUDGET FOR ENTIRE MODEL
                     AT END OF TIME STEP   99 IN STRESS PERIOD   1
                                      ZONE     2
  -----------------------------------------------------------------------------------

        CUMULATIVE VOLUMES      L**3       RATES FOR THIS TIME STEP      L**3/T
        ------------------                 ------------------------

              IN:                                      IN:
              ---                                      ---
             BOUNDARIES =       7.7802E-14            BOUNDARIES =       6.7746E-13
          CONSTANT HEAD =       1.1718E-03         CONSTANT HEAD =       6.9613E-03
            ZONE CHANGE =       4.5074E-05           ZONE CHANGE =       3.4118E-04
       ZONE CHG TIP/TOE =       2.2460E-07      ZONE CHG TIP/TOE =       2.1775E-06
            ZONE MIXING =           0.0000           ZONE MIXING =           0.0000

               TOTAL IN =       1.2171E-03              TOTAL IN =       7.3047E-03

             OUT:                                     OUT:
             ----                                     ----
             BOUNDARIES =       7.7989E-14            BOUNDARIES =       6.1270E-13
          CONSTANT HEAD =           0.0000         CONSTANT HEAD =           0.0000
            ZONE CHANGE =       1.2016E-03           ZONE CHANGE =       7.2834E-03
       ZONE CHG TIP/TOE =       1.6168E-05      ZONE CHG TIP/TOE =       1.6765E-05
            ZONE MIXING =           0.0000           ZONE MIXING =           0.0000

              TOTAL OUT =       1.2178E-03             TOTAL OUT =       7.3001E-03

               IN - OUT =      -6.3598E-07              IN - OUT =       4.5085E-06

    PERCENT DISCREPANCY =          -0.05     PERCENT DISCREPANCY =           0.06


 HEAD WILL BE SAVED ON UNIT   51 AT END OF TIME STEP   99, STRESS PERIOD    1
1
  VOLUMETRIC BUDGET FOR ENTIRE MODEL AT END OF TIME STEP   99, STRESS PERIOD   1
  ------------------------------------------------------------------------------

     CUMULATIVE VOLUMES      L**3       RATES FOR THIS TIME STEP      L**3/T
     ------------------                 ------------------------

           IN:                                      IN:
           ---                                      ---
             STORAGE =       6.8270E-05               STORAGE =       1.8483E-05
       CONSTANT HEAD =       1.9682E-02         CONSTANT HEAD =           0.1641
               WELLS =           0.0000                 WELLS =           0.0000
          SWIADDTOCH =           0.0000            SWIADDTOCH =           0.0000

            TOTAL IN =       1.9751E-02              TOTAL IN =           0.1642

          OUT:                                     OUT:
          ----                                     ----
             STORAGE =       4.4747E-10               STORAGE =       5.9168E-09
       CONSTANT HEAD =           0.0000         CONSTANT HEAD =           0.0000
               WELLS =       1.9751E-02                 WELLS =           0.1642
          SWIADDTOCH =       4.4540E-10            SWIADDTOCH =           0.0000

           TOTAL OUT =       1.9751E-02             TOTAL OUT =           0.1642

            IN - OUT =      -9.3132E-09              IN - OUT =           0.0000

 PERCENT DISCREPANCY =          -0.00     PERCENT DISCREPANCY =           0.00






         TIME SUMMARY AT END OF TIME STEP   99 IN STRESS PERIOD    1
                    SECONDS     MINUTES      HOURS       DAYS        YEARS
                    -----------------------------------------------------------
   TIME STEP LENGTH  105.00      1.7500     2.91667E-02 1.21528E-03 3.32726E-06
 STRESS PERIOD TIME  10395.      173.25      2.8875     0.12031     3.29398E-04
         TOTAL TIME  10395.      173.25      2.8875     0.12031     3.29398E-04
1

 SOLVING FOR HEAD 
     2 EXTERNAL ITERATIONS FOR TIME STEP 100 IN STRESS PERIOD    1

 MAXIMUM HEAD CHANGE FOR EACH ITERATION:

     HEAD CHANGE  LAY,ROW,COL      HEAD CHANGE  LAY,ROW,COL  
 ------------------------------------------------------------
    -1.975E-05 (  6,    1, 1000)  -2.283E-07 (  6,    1, 1000)



 OUTPUT CONTROL FOR STRESS PERIOD    1   TIME STEP  100
    PRINT BUDGET
    SAVE HEAD FOR ALL LAYERS
 SOLVING FOR ZETA FOR LAYER     6 ZONE     2

     494 UPPER PART EQS.       496 LOWER PART EQS.    BAND WIDTH + 1 =    4
 STRESS PERIOD=  1 TIMESTEP=100 LAYER=  6 ZONE=  2 ACTIVE CELLS=  990 NUMBER OF EQUATIONS=     990
 UBUDSV SAVING "      ZETASRF  1" ON UNIT 55 AT TIME STEP100, STRESS PERIOD    1


                      VOLUMETRIC SWI ZONE BUDGET FOR ENTIRE MODEL
                     AT END OF TIME STEP  100 IN STRESS PERIOD   1
                                      ZONE     1
  -----------------------------------------------------------------------------------

        CUMULATIVE VOLUMES      L**3       RATES FOR THIS TIME STEP      L**3/T
        ------------------                 ------------------------

              IN:                                      IN:
              ---                                      ---
             BOUNDARIES =       2.0219E-08            BOUNDARIES =       1.5509E-07
          CONSTANT HEAD =       1.8701E-02         CONSTANT HEAD =           0.1572
            ZONE CHANGE =       1.2787E-03           ZONE CHANGE =       7.2410E-03
       ZONE CHG TIP/TOE =       1.8444E-05      ZONE CHG TIP/TOE =       2.7794E-05
            ZONE MIXING =           0.0000           ZONE MIXING =           0.0000

               TOTAL IN =       1.9999E-02              TOTAL IN =           0.1645

             OUT:                                     OUT:
             ----                                     ----
             BOUNDARIES =       1.9950E-02            BOUNDARIES =           0.1642
          CONSTANT HEAD =           0.0000         CONSTANT HEAD =           0.0000
            ZONE CHANGE =       4.7724E-05           ZONE CHANGE =       3.3607E-04
       ZONE CHG TIP/TOE =       2.2599E-07      ZONE CHG TIP/TOE =       1.1503E-06
            ZONE MIXING =           0.0000           ZONE MIXING =           0.0000

              TOTAL OUT =       1.9998E-02             TOTAL OUT =           0.1645

               IN - OUT =       6.7055E-07              IN - OUT =      -2.7865E-06

    PERCENT DISCREPANCY =           0.00     PERCENT DISCREPANCY =          -0.00



                      VOLUMETRIC SWI ZONE BUDGET FOR ENTIRE MODEL
                     AT END OF TIME STEP  100 IN STRESS PERIOD   1
                                      ZONE     2
  -----------------------------------------------------------------------------------

        CUMULATIVE VOLUMES      L**3       RATES FOR THIS TIME STEP      L**3/T
        ------------------                 ------------------------

              IN:                                      IN:
              ---                                      ---
             BOUNDARIES =       7.8602E-14            BOUNDARIES =       6.5802E-13
          CONSTANT HEAD =       1.1803E-03         CONSTANT HEAD =       6.9159E-03
            ZONE CHANGE =       4.5468E-05           ZONE CHANGE =       3.2413E-04
       ZONE CHG TIP/TOE =       2.2599E-07      ZONE CHG TIP/TOE =       1.1503E-06
            ZONE MIXING =           0.0000           ZONE MIXING =           0.0000

               TOTAL IN =       1.2259E-03              TOTAL IN =       7.2412E-03

             OUT:                                     OUT:
             ----                                     ----
             BOUNDARIES =       7.8733E-14            BOUNDARIES =       6.1197E-13
          CONSTANT HEAD =           0.0000         CONSTANT HEAD =           0.0000
            ZONE CHANGE =       1.2104E-03           ZONE CHANGE =       7.2223E-03
       ZONE CHG TIP/TOE =       1.6188E-05      ZONE CHG TIP/TOE =       1.5857E-05
            ZONE MIXING =           0.0000           ZONE MIXING =           0.0000

              TOTAL OUT =       1.2266E-03             TOTAL OUT =       7.2381E-03

               IN - OUT =      -6.3202E-07              IN - OUT =       3.0869E-06

    PERCENT DISCREPANCY =          -0.05     PERCENT DISCREPANCY =           0.04


 HEAD WILL BE SAVED ON UNIT   51 AT END OF TIME STEP  100, STRESS PERIOD    1
1
  VOLUMETRIC BUDGET FOR ENTIRE MODEL AT END OF TIME STEP  100, STRESS PERIOD   1
  ------------------------------------------------------------------------------

     CUMULATIVE VOLUMES      L**3       RATES FOR THIS TIME STEP      L**3/T
     ------------------                 ------------------------

           IN:                                      IN:
           ---                                      ---
             STORAGE =       6.8293E-05               STORAGE =       1.8434E-05
       CONSTANT HEAD =       1.9882E-02         CONSTANT HEAD =           0.1641
               WELLS =           0.0000                 WELLS =           0.0000
          SWIADDTOCH =           0.0000            SWIADDTOCH =           0.0000

            TOTAL IN =       1.9950E-02              TOTAL IN =           0.1642

          OUT:                                     OUT:
          ----                                     ----
             STORAGE =       4.5352E-10               STORAGE =       4.9813E-09
       CONSTANT HEAD =           0.0000         CONSTANT HEAD =           0.0000
               WELLS =       1.9950E-02                 WELLS =           0.1642
          SWIADDTOCH =       4.4540E-10            SWIADDTOCH =           0.0000

           TOTAL OUT =       1.9950E-02             TOTAL OUT =           0.1642

            IN - OUT =      -9.3132E-09              IN - OUT =       1.4901E-08

 PERCENT DISCREPANCY =          -0.00     PERCENT DISCREPANCY =           0.00






         TIME SUMMARY AT END OF TIME STEP  100 IN STRESS PERIOD    1
                    SECONDS     MINUTES      HOURS       DAYS        YEARS
                    -----------------------------------------------------------
   TIME STEP LENGTH  105.00      1.7500     2.91667E-02 1.21528E-03 3.32726E-06
 STRESS PERIOD TIME  10500.      175.00      2.9167     0.12153     3.32725E-04
         TOTAL TIME  10500.      175.00      2.9167     0.12153     3.32725E-04
1

 SOLVING FOR HEAD 
     2 EXTERNAL ITERATIONS FOR TIME STEP 101 IN STRESS PERIOD    1

 MAXIMUM HEAD CHANGE FOR EACH ITERATION:

     HEAD CHANGE  LAY,ROW,COL      HEAD CHANGE  LAY,ROW,COL  
 ------------------------------------------------------------
    -1.974E-05 (  6,    1, 1000)  -2.280E-07 (  6,    1, 1000)



 OUTPUT CONTROL FOR STRESS PERIOD    1   TIME STEP  101
    PRINT BUDGET
    SAVE HEAD FOR ALL LAYERS
 SOLVING FOR ZETA FOR LAYER     6 ZONE     2

     495 UPPER PART EQS.       494 LOWER PART EQS.    BAND WIDTH + 1 =    4
 STRESS PERIOD=  1 TIMESTEP=101 LAYER=  6 ZONE=  2 ACTIVE CELLS=  989 NUMBER OF EQUATIONS=     989
 UBUDSV SAVING "      ZETASRF  1" ON UNIT 55 AT TIME STEP101, STRESS PERIOD    1


                      VOLUMETRIC SWI ZONE BUDGET FOR ENTIRE MODEL
                     AT END OF TIME STEP  101 IN STRESS PERIOD   1
                                      ZONE     1
  -----------------------------------------------------------------------------------

        CUMULATIVE VOLUMES      L**3       RATES FOR THIS TIME STEP      L**3/T
        ------------------                 ------------------------

              IN:                                      IN:
              ---                                      ---
             BOUNDARIES =       2.0420E-08            BOUNDARIES =       1.6524E-07
          CONSTANT HEAD =       1.8893E-02         CONSTANT HEAD =           0.1573
            ZONE CHANGE =       1.2874E-03           ZONE CHANGE =       7.1767E-03
       ZONE CHG TIP/TOE =       1.8468E-05      ZONE CHG TIP/TOE =       1.9527E-05
            ZONE MIXING =           0.0000           ZONE MIXING =           0.0000

               TOTAL IN =       2.0199E-02              TOTAL IN =           0.1645

             OUT:                                     OUT:
             ----                                     ----
             BOUNDARIES =       2.0150E-02            BOUNDARIES =           0.1642
          CONSTANT HEAD =           0.0000         CONSTANT HEAD =           0.0000
            ZONE CHANGE =       4.8104E-05           ZONE CHANGE =       3.1293E-04
       ZONE CHG TIP/TOE =       2.3035E-07      ZONE CHG TIP/TOE =       3.5851E-06
            ZONE MIXING =           0.0000           ZONE MIXING =           0.0000

              TOTAL OUT =       2.0198E-02             TOTAL OUT =           0.1645

               IN - OUT =       6.5751E-07              IN - OUT =      -9.1642E-06

    PERCENT DISCREPANCY =           0.00     PERCENT DISCREPANCY =          -0.01



                      VOLUMETRIC SWI ZONE BUDGET FOR ENTIRE MODEL
                     AT END OF TIME STEP  101 IN STRESS PERIOD   1
                                      ZONE     2
  -----------------------------------------------------------------------------------

        CUMULATIVE VOLUMES      L**3       RATES FOR THIS TIME STEP      L**3/T
        ------------------                 ------------------------

              IN:                                      IN:
              ---                                      ---
             BOUNDARIES =       7.9365E-14            BOUNDARIES =       6.2812E-13
          CONSTANT HEAD =       1.1886E-03         CONSTANT HEAD =       6.8705E-03
            ZONE CHANGE =       4.5838E-05           ZONE CHANGE =       3.0435E-04
       ZONE CHG TIP/TOE =       2.3035E-07      ZONE CHG TIP/TOE =       3.5851E-06
            ZONE MIXING =           0.0000           ZONE MIXING =           0.0000

               TOTAL IN =       1.2347E-03              TOTAL IN =       7.1785E-03

             OUT:                                     OUT:
             ----                                     ----
             BOUNDARIES =       7.9526E-14            BOUNDARIES =       6.5301E-13
          CONSTANT HEAD =           0.0000         CONSTANT HEAD =           0.0000
            ZONE CHANGE =       1.2191E-03           ZONE CHANGE =       7.1581E-03
       ZONE CHG TIP/TOE =       1.6201E-05      ZONE CHG TIP/TOE =       1.0942E-05
            ZONE MIXING =           0.0000           ZONE MIXING =           0.0000

              TOTAL OUT =       1.2353E-03             TOTAL OUT =       7.1690E-03

               IN - OUT =      -6.2049E-07              IN - OUT =       9.4255E-06

    PERCENT DISCREPANCY =          -0.05     PERCENT DISCREPANCY =           0.13


 HEAD WILL BE SAVED ON UNIT   51 AT END OF TIME STEP  101, STRESS PERIOD    1
1
  VOLUMETRIC BUDGET FOR ENTIRE MODEL AT END OF TIME STEP  101, STRESS PERIOD   1
  ------------------------------------------------------------------------------

     CUMULATIVE VOLUMES      L**3       RATES FOR THIS TIME STEP      L**3/T
     ------------------                 ------------------------

           IN:                                      IN:
           ---                                      ---
             STORAGE =       6.8315E-05               STORAGE =       1.8378E-05
       CONSTANT HEAD =       2.0081E-02         CONSTANT HEAD =           0.1641
               WELLS =           0.0000                 WELLS =           0.0000
          SWIADDTOCH =           0.0000            SWIADDTOCH =           0.0000

            TOTAL IN =       2.0150E-02              TOTAL IN =           0.1642

          OUT:                                     OUT:
          ----                                     ----
             STORAGE =       4.5844E-10               STORAGE =       4.0460E-09
       CONSTANT HEAD =           0.0000         CONSTANT HEAD =           0.0000
               WELLS =       2.0150E-02                 WELLS =           0.1642
          SWIADDTOCH =       4.4540E-10            SWIADDTOCH =           0.0000

           TOTAL OUT =       2.0150E-02             TOTAL OUT =           0.1642

            IN - OUT =      -9.3132E-09              IN - OUT =       1.4901E-08

 PERCENT DISCREPANCY =          -0.00     PERCENT DISCREPANCY =           0.00






         TIME SUMMARY AT END OF TIME STEP  101 IN STRESS PERIOD    1
                    SECONDS     MINUTES      HOURS       DAYS        YEARS
                    -----------------------------------------------------------
   TIME STEP LENGTH  105.00      1.7500     2.91667E-02 1.21528E-03 3.32726E-06
 STRESS PERIOD TIME  10605.      176.75      2.9458     0.12274     3.36053E-04
         TOTAL TIME  10605.      176.75      2.9458     0.12274     3.36053E-04
1

 SOLVING FOR HEAD 
     2 EXTERNAL ITERATIONS FOR TIME STEP 102 IN STRESS PERIOD    1

 MAXIMUM HEAD CHANGE FOR EACH ITERATION:

     HEAD CHANGE  LAY,ROW,COL      HEAD CHANGE  LAY,ROW,COL  
 ------------------------------------------------------------
    -1.971E-05 (  6,    1, 1000)  -2.271E-07 (  6,    1,  999)



 OUTPUT CONTROL FOR STRESS PERIOD    1   TIME STEP  102
    PRINT BUDGET
    SAVE HEAD FOR ALL LAYERS
 SOLVING FOR ZETA FOR LAYER     6 ZONE     2

     496 UPPER PART EQS.       495 LOWER PART EQS.    BAND WIDTH + 1 =    4
 STRESS PERIOD=  1 TIMESTEP=102 LAYER=  6 ZONE=  2 ACTIVE CELLS=  991 NUMBER OF EQUATIONS=     991
 UBUDSV SAVING "      ZETASRF  1" ON UNIT 55 AT TIME STEP102, STRESS PERIOD    1


                      VOLUMETRIC SWI ZONE BUDGET FOR ENTIRE MODEL
                     AT END OF TIME STEP  102 IN STRESS PERIOD   1
                                      ZONE     1
  -----------------------------------------------------------------------------------

        CUMULATIVE VOLUMES      L**3       RATES FOR THIS TIME STEP      L**3/T
        ------------------                 ------------------------

              IN:                                      IN:
              ---                                      ---
             BOUNDARIES =       2.0605E-08            BOUNDARIES =       1.5206E-07
          CONSTANT HEAD =       1.9084E-02         CONSTANT HEAD =           0.1573
            ZONE CHANGE =       1.2960E-03           ZONE CHANGE =       7.0800E-03
       ZONE CHG TIP/TOE =       1.8492E-05      ZONE CHG TIP/TOE =       2.0298E-05
            ZONE MIXING =           0.0000           ZONE MIXING =           0.0000

               TOTAL IN =       2.0398E-02              TOTAL IN =           0.1644

             OUT:                                     OUT:
             ----                                     ----
             BOUNDARIES =       2.0349E-02            BOUNDARIES =           0.1642
          CONSTANT HEAD =           0.0000         CONSTANT HEAD =           0.0000
            ZONE CHANGE =       4.8421E-05           ZONE CHANGE =       2.6090E-04
       ZONE CHG TIP/TOE =       2.3428E-07      ZONE CHG TIP/TOE =       3.2284E-06
            ZONE MIXING =           0.0000           ZONE MIXING =           0.0000

              TOTAL OUT =       2.0398E-02             TOTAL OUT =           0.1644

               IN - OUT =       6.4820E-07              IN - OUT =      -7.4357E-06

    PERCENT DISCREPANCY =           0.00     PERCENT DISCREPANCY =          -0.00



                      VOLUMETRIC SWI ZONE BUDGET FOR ENTIRE MODEL
                     AT END OF TIME STEP  102 IN STRESS PERIOD   1
                                      ZONE     2
  -----------------------------------------------------------------------------------

        CUMULATIVE VOLUMES      L**3       RATES FOR THIS TIME STEP      L**3/T
        ------------------                 ------------------------

              IN:                                      IN:
              ---                                      ---
             BOUNDARIES =       8.0168E-14            BOUNDARIES =       6.6070E-13
          CONSTANT HEAD =       1.1969E-03         CONSTANT HEAD =       6.8252E-03
            ZONE CHANGE =       4.6143E-05           ZONE CHANGE =       2.5090E-04
       ZONE CHG TIP/TOE =       2.3428E-07      ZONE CHG TIP/TOE =       3.2284E-06
            ZONE MIXING =           0.0000           ZONE MIXING =           0.0000

               TOTAL IN =       1.2433E-03              TOTAL IN =       7.0794E-03

             OUT:                                     OUT:
             ----                                     ----
             BOUNDARIES =       8.0283E-14            BOUNDARIES =       6.2300E-13
          CONSTANT HEAD =           0.0000         CONSTANT HEAD =           0.0000
            ZONE CHANGE =       1.2277E-03           ZONE CHANGE =       7.0613E-03
       ZONE CHG TIP/TOE =       1.6213E-05      ZONE CHG TIP/TOE =       1.0303E-05
            ZONE MIXING =           0.0000           ZONE MIXING =           0.0000

              TOTAL OUT =       1.2439E-03             TOTAL OUT =       7.0716E-03

               IN - OUT =      -6.1118E-07              IN - OUT =       7.7155E-06

    PERCENT DISCREPANCY =          -0.05     PERCENT DISCREPANCY =           0.11


 HEAD WILL BE SAVED ON UNIT   51 AT END OF TIME STEP  102, STRESS PERIOD    1
1
  VOLUMETRIC BUDGET FOR ENTIRE MODEL AT END OF TIME STEP  102, STRESS PERIOD   1
  ------------------------------------------------------------------------------

     CUMULATIVE VOLUMES      L**3       RATES FOR THIS TIME STEP      L**3/T
     ------------------                 ------------------------

           IN:                                      IN:
           ---                                      ---
             STORAGE =       6.8337E-05               STORAGE =       1.8328E-05
       CONSTANT HEAD =       2.0281E-02         CONSTANT HEAD =           0.1641
               WELLS =           0.0000                 WELLS =           0.0000
          SWIADDTOCH =           0.0000            SWIADDTOCH =           0.0000

            TOTAL IN =       2.0349E-02              TOTAL IN =           0.1642

          OUT:                                     OUT:
          ----                                     ----
             STORAGE =       4.6222E-10               STORAGE =       3.1121E-09
       CONSTANT HEAD =           0.0000         CONSTANT HEAD =           0.0000
               WELLS =       2.0349E-02                 WELLS =           0.1642
          SWIADDTOCH =       4.4540E-10            SWIADDTOCH =           0.0000

           TOTAL OUT =       2.0349E-02             TOTAL OUT =           0.1642

            IN - OUT =      -9.3132E-09              IN - OUT =       2.9802E-08

 PERCENT DISCREPANCY =          -0.00     PERCENT DISCREPANCY =           0.00






         TIME SUMMARY AT END OF TIME STEP  102 IN STRESS PERIOD    1
                    SECONDS     MINUTES      HOURS       DAYS        YEARS
                    -----------------------------------------------------------
   TIME STEP LENGTH  105.00      1.7500     2.91667E-02 1.21528E-03 3.32726E-06
 STRESS PERIOD TIME  10710.      178.50      2.9750     0.12396     3.39380E-04
         TOTAL TIME  10710.      178.50      2.9750     0.12396     3.39380E-04
1

 SOLVING FOR HEAD 
     2 EXTERNAL ITERATIONS FOR TIME STEP 103 IN STRESS PERIOD    1

 MAXIMUM HEAD CHANGE FOR EACH ITERATION:

     HEAD CHANGE  LAY,ROW,COL      HEAD CHANGE  LAY,ROW,COL  
 ------------------------------------------------------------
    -1.969E-05 (  6,    1, 1000)  -2.266E-07 (  6,    1,  999)



 OUTPUT CONTROL FOR STRESS PERIOD    1   TIME STEP  103
    PRINT BUDGET
    SAVE HEAD FOR ALL LAYERS
 SOLVING FOR ZETA FOR LAYER     6 ZONE     2

     495 UPPER PART EQS.       495 LOWER PART EQS.    BAND WIDTH + 1 =    3
 STRESS PERIOD=  1 TIMESTEP=103 LAYER=  6 ZONE=  2 ACTIVE CELLS=  990 NUMBER OF EQUATIONS=     990
 UBUDSV SAVING "      ZETASRF  1" ON UNIT 55 AT TIME STEP103, STRESS PERIOD    1


                      VOLUMETRIC SWI ZONE BUDGET FOR ENTIRE MODEL
                     AT END OF TIME STEP  103 IN STRESS PERIOD   1
                                      ZONE     1
  -----------------------------------------------------------------------------------

        CUMULATIVE VOLUMES      L**3       RATES FOR THIS TIME STEP      L**3/T
        ------------------                 ------------------------

              IN:                                      IN:
              ---                                      ---
             BOUNDARIES =       2.0809E-08            BOUNDARIES =       1.6807E-07
          CONSTANT HEAD =       1.9275E-02         CONSTANT HEAD =           0.1574
            ZONE CHANGE =       1.3046E-03           ZONE CHANGE =       7.0113E-03
       ZONE CHG TIP/TOE =       1.8516E-05      ZONE CHG TIP/TOE =       1.9725E-05
            ZONE MIXING =           0.0000           ZONE MIXING =           0.0000

               TOTAL IN =       2.0598E-02              TOTAL IN =           0.1644

             OUT:                                     OUT:
             ----                                     ----
             BOUNDARIES =       2.0549E-02            BOUNDARIES =           0.1642
          CONSTANT HEAD =           0.0000         CONSTANT HEAD =           0.0000
            ZONE CHANGE =       4.8708E-05           ZONE CHANGE =       2.3618E-04
       ZONE CHG TIP/TOE =       2.3587E-07      ZONE CHG TIP/TOE =       1.3085E-06
            ZONE MIXING =           0.0000           ZONE MIXING =           0.0000

              TOTAL OUT =       2.0597E-02             TOTAL OUT =           0.1644

               IN - OUT =       6.4448E-07              IN - OUT =      -4.4852E-06

    PERCENT DISCREPANCY =           0.00     PERCENT DISCREPANCY =          -0.00



                      VOLUMETRIC SWI ZONE BUDGET FOR ENTIRE MODEL
                     AT END OF TIME STEP  103 IN STRESS PERIOD   1
                                      ZONE     2
  -----------------------------------------------------------------------------------

        CUMULATIVE VOLUMES      L**3       RATES FOR THIS TIME STEP      L**3/T
        ------------------                 ------------------------

              IN:                                      IN:
              ---                                      ---
             BOUNDARIES =       8.0986E-14            BOUNDARIES =       6.7335E-13
          CONSTANT HEAD =       1.2051E-03         CONSTANT HEAD =       6.7798E-03
            ZONE CHANGE =       4.6415E-05           ZONE CHANGE =       2.2442E-04
       ZONE CHG TIP/TOE =       2.3587E-07      ZONE CHG TIP/TOE =       1.3085E-06
            ZONE MIXING =           0.0000           ZONE MIXING =           0.0000

               TOTAL IN =       1.2518E-03              TOTAL IN =       7.0056E-03

             OUT:                                     OUT:
             ----                                     ----
             BOUNDARIES =       8.1102E-14            BOUNDARIES =       6.7353E-13
          CONSTANT HEAD =           0.0000         CONSTANT HEAD =           0.0000
            ZONE CHANGE =       1.2362E-03           ZONE CHANGE =       6.9928E-03
       ZONE CHG TIP/TOE =       1.6223E-05      ZONE CHG TIP/TOE =       7.9600E-06
            ZONE MIXING =           0.0000           ZONE MIXING =           0.0000

              TOTAL OUT =       1.2524E-03             TOTAL OUT =       7.0008E-03

               IN - OUT =      -6.0524E-07              IN - OUT =       4.7917E-06

    PERCENT DISCREPANCY =          -0.05     PERCENT DISCREPANCY =           0.07


 HEAD WILL BE SAVED ON UNIT   51 AT END OF TIME STEP  103, STRESS PERIOD    1
1
  VOLUMETRIC BUDGET FOR ENTIRE MODEL AT END OF TIME STEP  103, STRESS PERIOD   1
  ------------------------------------------------------------------------------

     CUMULATIVE VOLUMES      L**3       RATES FOR THIS TIME STEP      L**3/T
     ------------------                 ------------------------

           IN:                                      IN:
           ---                                      ---
             STORAGE =       6.8359E-05               STORAGE =       1.8218E-05
       CONSTANT HEAD =       2.0480E-02         CONSTANT HEAD =           0.1641
               WELLS =           0.0000                 WELLS =           0.0000
          SWIADDTOCH =           0.0000            SWIADDTOCH =           0.0000

            TOTAL IN =       2.0549E-02              TOTAL IN =           0.1642

          OUT:                                     OUT:
          ----                                     ----
             STORAGE =       4.6940E-10               STORAGE =       5.9018E-09
       CONSTANT HEAD =           0.0000         CONSTANT HEAD =           0.0000
               WELLS =       2.0549E-02                 WELLS =           0.1642
          SWIADDTOCH =       4.4540E-10            SWIADDTOCH =           0.0000

           TOTAL OUT =       2.0549E-02             TOTAL OUT =           0.1642

            IN - OUT =      -9.3132E-09              IN - OUT =           0.0000

 PERCENT DISCREPANCY =          -0.00     PERCENT DISCREPANCY =           0.00






         TIME SUMMARY AT END OF TIME STEP  103 IN STRESS PERIOD    1
                    SECONDS     MINUTES      HOURS       DAYS        YEARS
                    -----------------------------------------------------------
   TIME STEP LENGTH  105.00      1.7500     2.91667E-02 1.21528E-03 3.32726E-06
 STRESS PERIOD TIME  10815.      180.25      3.0042     0.12517     3.42707E-04
         TOTAL TIME  10815.      180.25      3.0042     0.12517     3.42707E-04
1

 SOLVING FOR HEAD 
     2 EXTERNAL ITERATIONS FOR TIME STEP 104 IN STRESS PERIOD    1

 MAXIMUM HEAD CHANGE FOR EACH ITERATION:

     HEAD CHANGE  LAY,ROW,COL      HEAD CHANGE  LAY,ROW,COL  
 ------------------------------------------------------------
    -1.968E-05 (  6,    1, 1000)  -2.262E-07 (  6,    1,  998)



 OUTPUT CONTROL FOR STRESS PERIOD    1   TIME STEP  104
    PRINT BUDGET
    SAVE HEAD FOR ALL LAYERS
 SOLVING FOR ZETA FOR LAYER     6 ZONE     2

     495 UPPER PART EQS.       496 LOWER PART EQS.    BAND WIDTH + 1 =    3
 STRESS PERIOD=  1 TIMESTEP=104 LAYER=  6 ZONE=  2 ACTIVE CELLS=  991 NUMBER OF EQUATIONS=     991
 UBUDSV SAVING "      ZETASRF  1" ON UNIT 55 AT TIME STEP104, STRESS PERIOD    1


                      VOLUMETRIC SWI ZONE BUDGET FOR ENTIRE MODEL
                     AT END OF TIME STEP  104 IN STRESS PERIOD   1
                                      ZONE     1
  -----------------------------------------------------------------------------------

        CUMULATIVE VOLUMES      L**3       RATES FOR THIS TIME STEP      L**3/T
        ------------------                 ------------------------

              IN:                                      IN:
              ---                                      ---
             BOUNDARIES =       2.1025E-08            BOUNDARIES =       1.7815E-07
          CONSTANT HEAD =       1.9466E-02         CONSTANT HEAD =           0.1574
            ZONE CHANGE =       1.3130E-03           ZONE CHANGE =       6.9246E-03
       ZONE CHG TIP/TOE =       1.8537E-05      ZONE CHG TIP/TOE =       1.7519E-05
            ZONE MIXING =           0.0000           ZONE MIXING =           0.0000

               TOTAL IN =       2.0798E-02              TOTAL IN =           0.1643

             OUT:                                     OUT:
             ----                                     ----
             BOUNDARIES =       2.0748E-02            BOUNDARIES =           0.1642
          CONSTANT HEAD =           0.0000         CONSTANT HEAD =           0.0000
            ZONE CHANGE =       4.8945E-05           ZONE CHANGE =       1.9509E-04
       ZONE CHG TIP/TOE =       2.3674E-07      ZONE CHG TIP/TOE =       7.1636E-07
            ZONE MIXING =           0.0000           ZONE MIXING =           0.0000

              TOTAL OUT =       2.0797E-02             TOTAL OUT =           0.1644

               IN - OUT =       6.3702E-07              IN - OUT =      -6.1691E-06

    PERCENT DISCREPANCY =           0.00     PERCENT DISCREPANCY =          -0.00



                      VOLUMETRIC SWI ZONE BUDGET FOR ENTIRE MODEL
                     AT END OF TIME STEP  104 IN STRESS PERIOD   1
                                      ZONE     2
  -----------------------------------------------------------------------------------

        CUMULATIVE VOLUMES      L**3       RATES FOR THIS TIME STEP      L**3/T
        ------------------                 ------------------------

              IN:                                      IN:
              ---                                      ---
             BOUNDARIES =       8.1761E-14            BOUNDARIES =       6.3697E-13
          CONSTANT HEAD =       1.2133E-03         CONSTANT HEAD =       6.7344E-03
            ZONE CHANGE =       4.6641E-05           ZONE CHANGE =       1.8603E-04
       ZONE CHG TIP/TOE =       2.3674E-07      ZONE CHG TIP/TOE =       7.1636E-07
            ZONE MIXING =           0.0000           ZONE MIXING =           0.0000

               TOTAL IN =       1.2602E-03              TOTAL IN =       6.9211E-03

             OUT:                                     OUT:
             ----                                     ----
             BOUNDARIES =       8.1936E-14            BOUNDARIES =       6.8603E-13
          CONSTANT HEAD =           0.0000         CONSTANT HEAD =           0.0000
            ZONE CHANGE =       1.2446E-03           ZONE CHANGE =       6.9062E-03
       ZONE CHG TIP/TOE =       1.6233E-05      ZONE CHG TIP/TOE =       8.4585E-06
            ZONE MIXING =           0.0000           ZONE MIXING =           0.0000

              TOTAL OUT =       1.2608E-03             TOTAL OUT =       6.9146E-03

               IN - OUT =      -5.9744E-07              IN - OUT =       6.5216E-06

    PERCENT DISCREPANCY =          -0.05     PERCENT DISCREPANCY =           0.09


 HEAD WILL BE SAVED ON UNIT   51 AT END OF TIME STEP  104, STRESS PERIOD    1
1
  VOLUMETRIC BUDGET FOR ENTIRE MODEL AT END OF TIME STEP  104, STRESS PERIOD   1
  ------------------------------------------------------------------------------

     CUMULATIVE VOLUMES      L**3       RATES FOR THIS TIME STEP      L**3/T
     ------------------                 ------------------------

           IN:                                      IN:
           ---                                      ---
             STORAGE =       6.8381E-05               STORAGE =       1.8158E-05
       CONSTANT HEAD =       2.0680E-02         CONSTANT HEAD =           0.1641
               WELLS =           0.0000                 WELLS =           0.0000
          SWIADDTOCH =           0.0000            SWIADDTOCH =           0.0000

            TOTAL IN =       2.0748E-02              TOTAL IN =           0.1642

          OUT:                                     OUT:
          ----                                     ----
             STORAGE =       4.7430E-10               STORAGE =       4.0357E-09
       CONSTANT HEAD =           0.0000         CONSTANT HEAD =           0.0000
               WELLS =       2.0748E-02                 WELLS =           0.1642
          SWIADDTOCH =       4.4540E-10            SWIADDTOCH =           0.0000

           TOTAL OUT =       2.0748E-02             TOTAL OUT =           0.1642

            IN - OUT =      -9.3132E-09              IN - OUT =           0.0000

 PERCENT DISCREPANCY =          -0.00     PERCENT DISCREPANCY =           0.00






         TIME SUMMARY AT END OF TIME STEP  104 IN STRESS PERIOD    1
                    SECONDS     MINUTES      HOURS       DAYS        YEARS
                    -----------------------------------------------------------
   TIME STEP LENGTH  105.00      1.7500     2.91667E-02 1.21528E-03 3.32726E-06
 STRESS PERIOD TIME  10920.      182.00      3.0333     0.12639     3.46034E-04
         TOTAL TIME  10920.      182.00      3.0333     0.12639     3.46034E-04
1

 SOLVING FOR HEAD 
     2 EXTERNAL ITERATIONS FOR TIME STEP 105 IN STRESS PERIOD    1

 MAXIMUM HEAD CHANGE FOR EACH ITERATION:

     HEAD CHANGE  LAY,ROW,COL      HEAD CHANGE  LAY,ROW,COL  
 ------------------------------------------------------------
    -1.967E-05 (  6,    1, 1000)  -2.258E-07 (  6,    1, 1000)



 OUTPUT CONTROL FOR STRESS PERIOD    1   TIME STEP  105
    PRINT BUDGET
    SAVE HEAD FOR ALL LAYERS
 SOLVING FOR ZETA FOR LAYER     6 ZONE     2

     496 UPPER PART EQS.       496 LOWER PART EQS.    BAND WIDTH + 1 =    3
 STRESS PERIOD=  1 TIMESTEP=105 LAYER=  6 ZONE=  2 ACTIVE CELLS=  992 NUMBER OF EQUATIONS=     992
 UBUDSV SAVING "      ZETASRF  1" ON UNIT 55 AT TIME STEP105, STRESS PERIOD    1


                      VOLUMETRIC SWI ZONE BUDGET FOR ENTIRE MODEL
                     AT END OF TIME STEP  105 IN STRESS PERIOD   1
                                      ZONE     1
  -----------------------------------------------------------------------------------

        CUMULATIVE VOLUMES      L**3       RATES FOR THIS TIME STEP      L**3/T
        ------------------                 ------------------------

              IN:                                      IN:
              ---                                      ---
             BOUNDARIES =       2.1218E-08            BOUNDARIES =       1.5840E-07
          CONSTANT HEAD =       1.9658E-02         CONSTANT HEAD =           0.1575
            ZONE CHANGE =       1.3213E-03           ZONE CHANGE =       6.8797E-03
       ZONE CHG TIP/TOE =       1.8553E-05      ZONE CHG TIP/TOE =       1.2908E-05
            ZONE MIXING =           0.0000           ZONE MIXING =           0.0000

               TOTAL IN =       2.0998E-02              TOTAL IN =           0.1643

             OUT:                                     OUT:
             ----                                     ----
             BOUNDARIES =       2.0948E-02            BOUNDARIES =           0.1642
          CONSTANT HEAD =           0.0000         CONSTANT HEAD =           0.0000
            ZONE CHANGE =       4.9181E-05           ZONE CHANGE =       1.9353E-04
       ZONE CHG TIP/TOE =       2.3716E-07      ZONE CHG TIP/TOE =       3.4869E-07
            ZONE MIXING =           0.0000           ZONE MIXING =           0.0000

              TOTAL OUT =       2.0997E-02             TOTAL OUT =           0.1644

               IN - OUT =       6.2771E-07              IN - OUT =      -8.3596E-06

    PERCENT DISCREPANCY =           0.00     PERCENT DISCREPANCY =          -0.01



                      VOLUMETRIC SWI ZONE BUDGET FOR ENTIRE MODEL
                     AT END OF TIME STEP  105 IN STRESS PERIOD   1
                                      ZONE     2
  -----------------------------------------------------------------------------------

        CUMULATIVE VOLUMES      L**3       RATES FOR THIS TIME STEP      L**3/T
        ------------------                 ------------------------

              IN:                                      IN:
              ---                                      ---
             BOUNDARIES =       8.2537E-14            BOUNDARIES =       6.3909E-13
          CONSTANT HEAD =       1.2215E-03         CONSTANT HEAD =       6.6890E-03
            ZONE CHANGE =       4.6870E-05           ZONE CHANGE =       1.8850E-04
       ZONE CHG TIP/TOE =       2.3716E-07      ZONE CHG TIP/TOE =       3.4869E-07
            ZONE MIXING =           0.0000           ZONE MIXING =           0.0000

               TOTAL IN =       1.2686E-03              TOTAL IN =       6.8779E-03

             OUT:                                     OUT:
             ----                                     ----
             BOUNDARIES =       8.2687E-14            BOUNDARIES =       6.1868E-13
          CONSTANT HEAD =           0.0000         CONSTANT HEAD =           0.0000
            ZONE CHANGE =       1.2529E-03           ZONE CHANGE =       6.8613E-03
       ZONE CHG TIP/TOE =       1.6243E-05      ZONE CHG TIP/TOE =       7.8758E-06
            ZONE MIXING =           0.0000           ZONE MIXING =           0.0000

              TOTAL OUT =       1.2691E-03             TOTAL OUT =       6.8692E-03

               IN - OUT =      -5.8697E-07              IN - OUT =       8.6650E-06

    PERCENT DISCREPANCY =          -0.05     PERCENT DISCREPANCY =           0.13


 HEAD WILL BE SAVED ON UNIT   51 AT END OF TIME STEP  105, STRESS PERIOD    1
1
  VOLUMETRIC BUDGET FOR ENTIRE MODEL AT END OF TIME STEP  105, STRESS PERIOD   1
  ------------------------------------------------------------------------------

     CUMULATIVE VOLUMES      L**3       RATES FOR THIS TIME STEP      L**3/T
     ------------------                 ------------------------

           IN:                                      IN:
           ---                                      ---
             STORAGE =       6.8403E-05               STORAGE =       1.8110E-05
       CONSTANT HEAD =       2.0879E-02         CONSTANT HEAD =           0.1641
               WELLS =           0.0000                 WELLS =           0.0000
          SWIADDTOCH =           0.0000            SWIADDTOCH =           0.0000

            TOTAL IN =       2.0948E-02              TOTAL IN =           0.1642

          OUT:                                     OUT:
          ----                                     ----
             STORAGE =       4.7694E-10               STORAGE =       2.1696E-09
       CONSTANT HEAD =           0.0000         CONSTANT HEAD =           0.0000
               WELLS =       2.0948E-02                 WELLS =           0.1642
          SWIADDTOCH =       5.0370E-10            SWIADDTOCH =       4.7974E-08

           TOTAL OUT =       2.0948E-02             TOTAL OUT =           0.1642

            IN - OUT =      -9.3132E-09              IN - OUT =       1.4901E-08

 PERCENT DISCREPANCY =          -0.00     PERCENT DISCREPANCY =           0.00






         TIME SUMMARY AT END OF TIME STEP  105 IN STRESS PERIOD    1
                    SECONDS     MINUTES      HOURS       DAYS        YEARS
                    -----------------------------------------------------------
   TIME STEP LENGTH  105.00      1.7500     2.91667E-02 1.21528E-03 3.32726E-06
 STRESS PERIOD TIME  11025.      183.75      3.0625     0.12760     3.49362E-04
         TOTAL TIME  11025.      183.75      3.0625     0.12760     3.49362E-04
1

 SOLVING FOR HEAD 
     2 EXTERNAL ITERATIONS FOR TIME STEP 106 IN STRESS PERIOD    1

 MAXIMUM HEAD CHANGE FOR EACH ITERATION:

     HEAD CHANGE  LAY,ROW,COL      HEAD CHANGE  LAY,ROW,COL  
 ------------------------------------------------------------
    -1.965E-05 (  6,    1, 1000)  -2.251E-07 (  6,    1,  999)



 OUTPUT CONTROL FOR STRESS PERIOD    1   TIME STEP  106
    PRINT BUDGET
    SAVE HEAD FOR ALL LAYERS
 SOLVING FOR ZETA FOR LAYER     6 ZONE     2

     497 UPPER PART EQS.       498 LOWER PART EQS.    BAND WIDTH + 1 =    2
 STRESS PERIOD=  1 TIMESTEP=106 LAYER=  6 ZONE=  2 ACTIVE CELLS=  995 NUMBER OF EQUATIONS=     995
 UBUDSV SAVING "      ZETASRF  1" ON UNIT 55 AT TIME STEP106, STRESS PERIOD    1


                      VOLUMETRIC SWI ZONE BUDGET FOR ENTIRE MODEL
                     AT END OF TIME STEP  106 IN STRESS PERIOD   1
                                      ZONE     1
  -----------------------------------------------------------------------------------

        CUMULATIVE VOLUMES      L**3       RATES FOR THIS TIME STEP      L**3/T
        ------------------                 ------------------------

              IN:                                      IN:
              ---                                      ---
             BOUNDARIES =       2.1423E-08            BOUNDARIES =       1.6836E-07
          CONSTANT HEAD =       1.9849E-02         CONSTANT HEAD =           0.1575
            ZONE CHANGE =       1.3298E-03           ZONE CHANGE =       6.9421E-03
       ZONE CHG TIP/TOE =       1.8575E-05      ZONE CHG TIP/TOE =       1.7571E-05
            ZONE MIXING =           0.0000           ZONE MIXING =           0.0000

               TOTAL IN =       2.1197E-02              TOTAL IN =           0.1645

             OUT:                                     OUT:
             ----                                     ----
             BOUNDARIES =       2.1147E-02            BOUNDARIES =           0.1642
          CONSTANT HEAD =           0.0000         CONSTANT HEAD =           0.0000
            ZONE CHANGE =       4.9541E-05           ZONE CHANGE =       2.9664E-04
       ZONE CHG TIP/TOE =       2.3801E-07      ZONE CHG TIP/TOE =       7.0057E-07
            ZONE MIXING =           0.0000           ZONE MIXING =           0.0000

              TOTAL OUT =       2.1197E-02             TOTAL OUT =           0.1645

               IN - OUT =       6.2771E-07              IN - OUT =       4.6194E-07

    PERCENT DISCREPANCY =           0.00     PERCENT DISCREPANCY =           0.00



                      VOLUMETRIC SWI ZONE BUDGET FOR ENTIRE MODEL
                     AT END OF TIME STEP  106 IN STRESS PERIOD   1
                                      ZONE     2
  -----------------------------------------------------------------------------------

        CUMULATIVE VOLUMES      L**3       RATES FOR THIS TIME STEP      L**3/T
        ------------------                 ------------------------

              IN:                                      IN:
              ---                                      ---
             BOUNDARIES =       8.3321E-14            BOUNDARIES =       6.4456E-13
          CONSTANT HEAD =       1.2295E-03         CONSTANT HEAD =       6.6438E-03
            ZONE CHANGE =       4.7220E-05           ZONE CHANGE =       2.8728E-04
       ZONE CHG TIP/TOE =       2.3801E-07      ZONE CHG TIP/TOE =       7.0057E-07
            ZONE MIXING =           0.0000           ZONE MIXING =           0.0000

               TOTAL IN =       1.2770E-03              TOTAL IN =       6.9318E-03

             OUT:                                     OUT:
             ----                                     ----
             BOUNDARIES =       8.3475E-14            BOUNDARIES =       6.4840E-13
          CONSTANT HEAD =           0.0000         CONSTANT HEAD =           0.0000
            ZONE CHANGE =       1.2613E-03           ZONE CHANGE =       6.9238E-03
       ZONE CHG TIP/TOE =       1.6253E-05      ZONE CHG TIP/TOE =       8.2168E-06
            ZONE MIXING =           0.0000           ZONE MIXING =           0.0000

              TOTAL OUT =       1.2776E-03             TOTAL OUT =       6.9320E-03

               IN - OUT =      -5.8708E-07              IN - OUT =      -1.4435E-07

    PERCENT DISCREPANCY =          -0.05     PERCENT DISCREPANCY =          -0.00


 HEAD WILL BE SAVED ON UNIT   51 AT END OF TIME STEP  106, STRESS PERIOD    1
1
  VOLUMETRIC BUDGET FOR ENTIRE MODEL AT END OF TIME STEP  106, STRESS PERIOD   1
  ------------------------------------------------------------------------------

     CUMULATIVE VOLUMES      L**3       RATES FOR THIS TIME STEP      L**3/T
     ------------------                 ------------------------

           IN:                                      IN:
           ---                                      ---
             STORAGE =       6.8425E-05               STORAGE =       1.8040E-05
       CONSTANT HEAD =       2.1079E-02         CONSTANT HEAD =           0.1641
               WELLS =           0.0000                 WELLS =           0.0000
          SWIADDTOCH =           0.0000            SWIADDTOCH =           0.0000

            TOTAL IN =       2.1147E-02              TOTAL IN =           0.1642

          OUT:                                     OUT:
          ----                                     ----
             STORAGE =       4.7957E-10               STORAGE =       2.1666E-09
       CONSTANT HEAD =           0.0000         CONSTANT HEAD =           0.0000
               WELLS =       2.1147E-02                 WELLS =           0.1642
          SWIADDTOCH =       5.0370E-10            SWIADDTOCH =           0.0000

           TOTAL OUT =       2.1147E-02             TOTAL OUT =           0.1642

            IN - OUT =      -9.3132E-09              IN - OUT =       1.4901E-08

 PERCENT DISCREPANCY =          -0.00     PERCENT DISCREPANCY =           0.00






         TIME SUMMARY AT END OF TIME STEP  106 IN STRESS PERIOD    1
                    SECONDS     MINUTES      HOURS       DAYS        YEARS
                    -----------------------------------------------------------
   TIME STEP LENGTH  105.00      1.7500     2.91667E-02 1.21528E-03 3.32726E-06
 STRESS PERIOD TIME  11130.      185.50      3.0917     0.12882     3.52689E-04
         TOTAL TIME  11130.      185.50      3.0917     0.12882     3.52689E-04
1

 SOLVING FOR HEAD 
     2 EXTERNAL ITERATIONS FOR TIME STEP 107 IN STRESS PERIOD    1

 MAXIMUM HEAD CHANGE FOR EACH ITERATION:

     HEAD CHANGE  LAY,ROW,COL      HEAD CHANGE  LAY,ROW,COL  
 ------------------------------------------------------------
    -1.968E-05 (  6,    1, 1000)  -2.255E-07 (  6,    1,  999)



 OUTPUT CONTROL FOR STRESS PERIOD    1   TIME STEP  107
    PRINT BUDGET
    SAVE HEAD FOR ALL LAYERS
 SOLVING FOR ZETA FOR LAYER     6 ZONE     2

     495 UPPER PART EQS.       494 LOWER PART EQS.    BAND WIDTH + 1 =    4
 STRESS PERIOD=  1 TIMESTEP=107 LAYER=  6 ZONE=  2 ACTIVE CELLS=  989 NUMBER OF EQUATIONS=     989
 UBUDSV SAVING "      ZETASRF  1" ON UNIT 55 AT TIME STEP107, STRESS PERIOD    1


                      VOLUMETRIC SWI ZONE BUDGET FOR ENTIRE MODEL
                     AT END OF TIME STEP  107 IN STRESS PERIOD   1
                                      ZONE     1
  -----------------------------------------------------------------------------------

        CUMULATIVE VOLUMES      L**3       RATES FOR THIS TIME STEP      L**3/T
        ------------------                 ------------------------

              IN:                                      IN:
              ---                                      ---
             BOUNDARIES =       2.1630E-08            BOUNDARIES =       1.7057E-07
          CONSTANT HEAD =       2.0041E-02         CONSTANT HEAD =           0.1575
            ZONE CHANGE =       1.3381E-03           ZONE CHANGE =       6.8459E-03
       ZONE CHG TIP/TOE =       1.8610E-05      ZONE CHG TIP/TOE =       2.9179E-05
            ZONE MIXING =           0.0000           ZONE MIXING =           0.0000

               TOTAL IN =       2.1397E-02              TOTAL IN =           0.1644

             OUT:                                     OUT:
             ----                                     ----
             BOUNDARIES =       2.1347E-02            BOUNDARIES =           0.1642
          CONSTANT HEAD =           0.0000         CONSTANT HEAD =           0.0000
            ZONE CHANGE =       4.9846E-05           ZONE CHANGE =       2.5117E-04
       ZONE CHG TIP/TOE =       2.4050E-07      ZONE CHG TIP/TOE =       2.0465E-06
            ZONE MIXING =           0.0000           ZONE MIXING =           0.0000

              TOTAL OUT =       2.1397E-02             TOTAL OUT =           0.1644

               IN - OUT =       6.3516E-07              IN - OUT =       4.7833E-06

    PERCENT DISCREPANCY =           0.00     PERCENT DISCREPANCY =           0.00



                      VOLUMETRIC SWI ZONE BUDGET FOR ENTIRE MODEL
                     AT END OF TIME STEP  107 IN STRESS PERIOD   1
                                      ZONE     2
  -----------------------------------------------------------------------------------

        CUMULATIVE VOLUMES      L**3       RATES FOR THIS TIME STEP      L**3/T
        ------------------                 ------------------------

              IN:                                      IN:
              ---                                      ---
             BOUNDARIES =       8.4129E-14            BOUNDARIES =       6.6499E-13
          CONSTANT HEAD =       1.2375E-03         CONSTANT HEAD =       6.5991E-03
            ZONE CHANGE =       4.7501E-05           ZONE CHANGE =       2.3181E-04
       ZONE CHG TIP/TOE =       2.4050E-07      ZONE CHG TIP/TOE =       2.0465E-06
            ZONE MIXING =           0.0000           ZONE MIXING =           0.0000

               TOTAL IN =       1.2853E-03              TOTAL IN =       6.8329E-03

             OUT:                                     OUT:
             ----                                     ----
             BOUNDARIES =       8.4234E-14            BOUNDARIES =       6.2456E-13
          CONSTANT HEAD =           0.0000         CONSTANT HEAD =           0.0000
            ZONE CHANGE =       1.2696E-03           ZONE CHANGE =       6.8276E-03
       ZONE CHG TIP/TOE =       1.6265E-05      ZONE CHG TIP/TOE =       9.8206E-06
            ZONE MIXING =           0.0000           ZONE MIXING =           0.0000

              TOTAL OUT =       1.2859E-03             TOTAL OUT =       6.8374E-03

               IN - OUT =      -5.9244E-07              IN - OUT =      -4.4727E-06

    PERCENT DISCREPANCY =          -0.05     PERCENT DISCREPANCY =          -0.07


 HEAD WILL BE SAVED ON UNIT   51 AT END OF TIME STEP  107, STRESS PERIOD    1
1
  VOLUMETRIC BUDGET FOR ENTIRE MODEL AT END OF TIME STEP  107, STRESS PERIOD   1
  ------------------------------------------------------------------------------

     CUMULATIVE VOLUMES      L**3       RATES FOR THIS TIME STEP      L**3/T
     ------------------                 ------------------------

           IN:                                      IN:
           ---                                      ---
             STORAGE =       6.8447E-05               STORAGE =       1.8007E-05
       CONSTANT HEAD =       2.1278E-02         CONSTANT HEAD =           0.1641
               WELLS =           0.0000                 WELLS =           0.0000
          SWIADDTOCH =           0.0000            SWIADDTOCH =           0.0000

            TOTAL IN =       2.1347E-02              TOTAL IN =           0.1642

          OUT:                                     OUT:
          ----                                     ----
             STORAGE =       4.8559E-10               STORAGE =       4.9569E-09
       CONSTANT HEAD =           0.0000         CONSTANT HEAD =           0.0000
               WELLS =       2.1347E-02                 WELLS =           0.1642
          SWIADDTOCH =       5.0370E-10            SWIADDTOCH =           0.0000

           TOTAL OUT =       2.1347E-02             TOTAL OUT =           0.1642

            IN - OUT =      -1.1176E-08              IN - OUT =           0.0000

 PERCENT DISCREPANCY =          -0.00     PERCENT DISCREPANCY =           0.00






         TIME SUMMARY AT END OF TIME STEP  107 IN STRESS PERIOD    1
                    SECONDS     MINUTES      HOURS       DAYS        YEARS
                    -----------------------------------------------------------
   TIME STEP LENGTH  105.00      1.7500     2.91667E-02 1.21528E-03 3.32726E-06
 STRESS PERIOD TIME  11235.      187.25      3.1208     0.13003     3.56016E-04
         TOTAL TIME  11235.      187.25      3.1208     0.13003     3.56016E-04
1

 SOLVING FOR HEAD 
     2 EXTERNAL ITERATIONS FOR TIME STEP 108 IN STRESS PERIOD    1

 MAXIMUM HEAD CHANGE FOR EACH ITERATION:

     HEAD CHANGE  LAY,ROW,COL      HEAD CHANGE  LAY,ROW,COL  
 ------------------------------------------------------------
    -1.960E-05 (  6,    1, 1000)  -2.234E-07 (  6,    1,  999)



 OUTPUT CONTROL FOR STRESS PERIOD    1   TIME STEP  108
    PRINT BUDGET
    SAVE HEAD FOR ALL LAYERS
 SOLVING FOR ZETA FOR LAYER     6 ZONE     2

     495 UPPER PART EQS.       496 LOWER PART EQS.    BAND WIDTH + 1 =    3
 STRESS PERIOD=  1 TIMESTEP=108 LAYER=  6 ZONE=  2 ACTIVE CELLS=  991 NUMBER OF EQUATIONS=     991
 UBUDSV SAVING "      ZETASRF  1" ON UNIT 55 AT TIME STEP108, STRESS PERIOD    1


                      VOLUMETRIC SWI ZONE BUDGET FOR ENTIRE MODEL
                     AT END OF TIME STEP  108 IN STRESS PERIOD   1
                                      ZONE     1
  -----------------------------------------------------------------------------------

        CUMULATIVE VOLUMES      L**3       RATES FOR THIS TIME STEP      L**3/T
        ------------------                 ------------------------

              IN:                                      IN:
              ---                                      ---
             BOUNDARIES =       2.1829E-08            BOUNDARIES =       1.6422E-07
          CONSTANT HEAD =       2.0232E-02         CONSTANT HEAD =           0.1576
            ZONE CHANGE =       1.3463E-03           ZONE CHANGE =       6.7558E-03
       ZONE CHG TIP/TOE =       1.8644E-05      ZONE CHG TIP/TOE =       2.7866E-05
            ZONE MIXING =           0.0000           ZONE MIXING =           0.0000

               TOTAL IN =       2.1597E-02              TOTAL IN =           0.1644

             OUT:                                     OUT:
             ----                                     ----
             BOUNDARIES =       2.1546E-02            BOUNDARIES =           0.1642
          CONSTANT HEAD =           0.0000         CONSTANT HEAD =           0.0000
            ZONE CHANGE =       5.0096E-05           ZONE CHANGE =       2.0564E-04
       ZONE CHG TIP/TOE =       2.4144E-07      ZONE CHG TIP/TOE =       7.7676E-07
            ZONE MIXING =           0.0000           ZONE MIXING =           0.0000

              TOTAL OUT =       2.1596E-02             TOTAL OUT =           0.1644

               IN - OUT =       6.3889E-07              IN - OUT =       5.5730E-06

    PERCENT DISCREPANCY =           0.00     PERCENT DISCREPANCY =           0.00



                      VOLUMETRIC SWI ZONE BUDGET FOR ENTIRE MODEL
                     AT END OF TIME STEP  108 IN STRESS PERIOD   1
                                      ZONE     2
  -----------------------------------------------------------------------------------

        CUMULATIVE VOLUMES      L**3       RATES FOR THIS TIME STEP      L**3/T
        ------------------                 ------------------------

              IN:                                      IN:
              ---                                      ---
             BOUNDARIES =       8.4925E-14            BOUNDARIES =       6.5529E-13
          CONSTANT HEAD =       1.2455E-03         CONSTANT HEAD =       6.5538E-03
            ZONE CHANGE =       4.7728E-05           ZONE CHANGE =       1.8673E-04
       ZONE CHG TIP/TOE =       2.4144E-07      ZONE CHG TIP/TOE =       7.7676E-07
            ZONE MIXING =           0.0000           ZONE MIXING =           0.0000

               TOTAL IN =       1.2935E-03              TOTAL IN =       6.7413E-03

             OUT:                                     OUT:
             ----                                     ----
             BOUNDARIES =       8.5087E-14            BOUNDARIES =       7.0149E-13
          CONSTANT HEAD =           0.0000         CONSTANT HEAD =           0.0000
            ZONE CHANGE =       1.2778E-03           ZONE CHANGE =       6.7376E-03
       ZONE CHG TIP/TOE =       1.6276E-05      ZONE CHG TIP/TOE =       8.9558E-06
            ZONE MIXING =           0.0000           ZONE MIXING =           0.0000

              TOTAL OUT =       1.2941E-03             TOTAL OUT =       6.7466E-03

               IN - OUT =      -5.9896E-07              IN - OUT =      -5.2624E-06

    PERCENT DISCREPANCY =          -0.05     PERCENT DISCREPANCY =          -0.08


 HEAD WILL BE SAVED ON UNIT   51 AT END OF TIME STEP  108, STRESS PERIOD    1
1
  VOLUMETRIC BUDGET FOR ENTIRE MODEL AT END OF TIME STEP  108, STRESS PERIOD   1
  ------------------------------------------------------------------------------

     CUMULATIVE VOLUMES      L**3       RATES FOR THIS TIME STEP      L**3/T
     ------------------                 ------------------------

           IN:                                      IN:
           ---                                      ---
             STORAGE =       6.8469E-05               STORAGE =       1.7896E-05
       CONSTANT HEAD =       2.1478E-02         CONSTANT HEAD =           0.1641
               WELLS =           0.0000                 WELLS =           0.0000
          SWIADDTOCH =           0.0000            SWIADDTOCH =           0.0000

            TOTAL IN =       2.1546E-02              TOTAL IN =           0.1642

          OUT:                                     OUT:
          ----                                     ----
             STORAGE =       4.9162E-10               STORAGE =       4.9560E-09
       CONSTANT HEAD =           0.0000         CONSTANT HEAD =           0.0000
               WELLS =       2.1546E-02                 WELLS =           0.1642
          SWIADDTOCH =       5.0370E-10            SWIADDTOCH =           0.0000

           TOTAL OUT =       2.1546E-02             TOTAL OUT =           0.1642

            IN - OUT =      -1.1176E-08              IN - OUT =       2.9802E-08

 PERCENT DISCREPANCY =          -0.00     PERCENT DISCREPANCY =           0.00






         TIME SUMMARY AT END OF TIME STEP  108 IN STRESS PERIOD    1
                    SECONDS     MINUTES      HOURS       DAYS        YEARS
                    -----------------------------------------------------------
   TIME STEP LENGTH  105.00      1.7500     2.91667E-02 1.21528E-03 3.32726E-06
 STRESS PERIOD TIME  11340.      189.00      3.1500     0.13125     3.59343E-04
         TOTAL TIME  11340.      189.00      3.1500     0.13125     3.59343E-04
1

 SOLVING FOR HEAD 
     2 EXTERNAL ITERATIONS FOR TIME STEP 109 IN STRESS PERIOD    1

 MAXIMUM HEAD CHANGE FOR EACH ITERATION:

     HEAD CHANGE  LAY,ROW,COL      HEAD CHANGE  LAY,ROW,COL  
 ------------------------------------------------------------
    -1.961E-05 (  6,    1, 1000)  -2.233E-07 (  6,    1,  999)



 OUTPUT CONTROL FOR STRESS PERIOD    1   TIME STEP  109
    PRINT BUDGET
    SAVE HEAD FOR ALL LAYERS
 SOLVING FOR ZETA FOR LAYER     6 ZONE     2
 STRESS PERIOD=  1 TIMESTEP=109 LAYER=  6 ZONE=  2 ACTIVE CELLS=  991 NUMBER OF EQUATIONS=     991
 UBUDSV SAVING "      ZETASRF  1" ON UNIT 55 AT TIME STEP109, STRESS PERIOD    1


                      VOLUMETRIC SWI ZONE BUDGET FOR ENTIRE MODEL
                     AT END OF TIME STEP  109 IN STRESS PERIOD   1
                                      ZONE     1
  -----------------------------------------------------------------------------------

        CUMULATIVE VOLUMES      L**3       RATES FOR THIS TIME STEP      L**3/T
        ------------------                 ------------------------

              IN:                                      IN:
              ---                                      ---
             BOUNDARIES =       2.2023E-08            BOUNDARIES =       1.5902E-07
          CONSTANT HEAD =       2.0424E-02         CONSTANT HEAD =           0.1576
            ZONE CHANGE =       1.3545E-03           ZONE CHANGE =       6.7079E-03
       ZONE CHG TIP/TOE =       1.8674E-05      ZONE CHG TIP/TOE =       2.4561E-05
            ZONE MIXING =           0.0000           ZONE MIXING =           0.0000

               TOTAL IN =       2.1797E-02              TOTAL IN =           0.1644

             OUT:                                     OUT:
             ----                                     ----
             BOUNDARIES =       2.1746E-02            BOUNDARIES =           0.1642
          CONSTANT HEAD =           0.0000         CONSTANT HEAD =           0.0000
            ZONE CHANGE =       5.0339E-05           ZONE CHANGE =       1.9999E-04
       ZONE CHG TIP/TOE =       2.4275E-07      ZONE CHG TIP/TOE =       1.0726E-06
            ZONE MIXING =           0.0000           ZONE MIXING =           0.0000

              TOTAL OUT =       2.1796E-02             TOTAL OUT =           0.1644

               IN - OUT =       6.4634E-07              IN - OUT =       4.7982E-06

    PERCENT DISCREPANCY =           0.00     PERCENT DISCREPANCY =           0.00



                      VOLUMETRIC SWI ZONE BUDGET FOR ENTIRE MODEL
                     AT END OF TIME STEP  109 IN STRESS PERIOD   1
                                      ZONE     2
  -----------------------------------------------------------------------------------

        CUMULATIVE VOLUMES      L**3       RATES FOR THIS TIME STEP      L**3/T
        ------------------                 ------------------------

              IN:                                      IN:
              ---                                      ---
             BOUNDARIES =       8.5750E-14            BOUNDARIES =       6.7899E-13
          CONSTANT HEAD =       1.2534E-03         CONSTANT HEAD =       6.5088E-03
            ZONE CHANGE =       4.7950E-05           ZONE CHANGE =       1.8252E-04
       ZONE CHG TIP/TOE =       2.4275E-07      ZONE CHG TIP/TOE =       1.0726E-06
            ZONE MIXING =           0.0000           ZONE MIXING =           0.0000

               TOTAL IN =       1.3016E-03              TOTAL IN =       6.6924E-03

             OUT:                                     OUT:
             ----                                     ----
             BOUNDARIES =       8.5804E-14            BOUNDARIES =       5.9006E-13
          CONSTANT HEAD =           0.0000         CONSTANT HEAD =           0.0000
            ZONE CHANGE =       1.2859E-03           ZONE CHANGE =       6.6898E-03
       ZONE CHG TIP/TOE =       1.6284E-05      ZONE CHG TIP/TOE =       7.1001E-06
            ZONE MIXING =           0.0000           ZONE MIXING =           0.0000

              TOTAL OUT =       1.3022E-03             TOTAL OUT =       6.6969E-03

               IN - OUT =      -6.0443E-07              IN - OUT =      -4.5025E-06

    PERCENT DISCREPANCY =          -0.05     PERCENT DISCREPANCY =          -0.07


 HEAD WILL BE SAVED ON UNIT   51 AT END OF TIME STEP  109, STRESS PERIOD    1
1
  VOLUMETRIC BUDGET FOR ENTIRE MODEL AT END OF TIME STEP  109, STRESS PERIOD   1
  ------------------------------------------------------------------------------

     CUMULATIVE VOLUMES      L**3       RATES FOR THIS TIME STEP      L**3/T
     ------------------                 ------------------------

           IN:                                      IN:
           ---                                      ---
             STORAGE =       6.8491E-05               STORAGE =       1.7830E-05
       CONSTANT HEAD =       2.1677E-02         CONSTANT HEAD =           0.1641
               WELLS =           0.0000                 WELLS =           0.0000
          SWIADDTOCH =           0.0000            SWIADDTOCH =           0.0000

            TOTAL IN =       2.1746E-02              TOTAL IN =           0.1642

          OUT:                                     OUT:
          ----                                     ----
             STORAGE =       4.9763E-10               STORAGE =       4.9518E-09
       CONSTANT HEAD =           0.0000         CONSTANT HEAD =           0.0000
               WELLS =       2.1746E-02                 WELLS =           0.1642
          SWIADDTOCH =       5.0370E-10            SWIADDTOCH =           0.0000

           TOTAL OUT =       2.1746E-02             TOTAL OUT =           0.1642

            IN - OUT =      -1.1176E-08              IN - OUT =       1.4901E-08

 PERCENT DISCREPANCY =          -0.00     PERCENT DISCREPANCY =           0.00






         TIME SUMMARY AT END OF TIME STEP  109 IN STRESS PERIOD    1
                    SECONDS     MINUTES      HOURS       DAYS        YEARS
                    -----------------------------------------------------------
   TIME STEP LENGTH  105.00      1.7500     2.91667E-02 1.21528E-03 3.32726E-06
 STRESS PERIOD TIME  11445.      190.75      3.1792     0.13247     3.62671E-04
         TOTAL TIME  11445.      190.75      3.1792     0.13247     3.62671E-04
1

 SOLVING FOR HEAD 
     2 EXTERNAL ITERATIONS FOR TIME STEP 110 IN STRESS PERIOD    1

 MAXIMUM HEAD CHANGE FOR EACH ITERATION:

     HEAD CHANGE  LAY,ROW,COL      HEAD CHANGE  LAY,ROW,COL  
 ------------------------------------------------------------
    -1.969E-05 (  6,    1, 1000)  -2.249E-07 (  6,    1,  999)



 OUTPUT CONTROL FOR STRESS PERIOD    1   TIME STEP  110
    PRINT BUDGET
    SAVE HEAD FOR ALL LAYERS
 SOLVING FOR ZETA FOR LAYER     6 ZONE     2

     494 UPPER PART EQS.       495 LOWER PART EQS.    BAND WIDTH + 1 =    3
 STRESS PERIOD=  1 TIMESTEP=110 LAYER=  6 ZONE=  2 ACTIVE CELLS=  989 NUMBER OF EQUATIONS=     989
 UBUDSV SAVING "      ZETASRF  1" ON UNIT 55 AT TIME STEP110, STRESS PERIOD    1


                      VOLUMETRIC SWI ZONE BUDGET FOR ENTIRE MODEL
                     AT END OF TIME STEP  110 IN STRESS PERIOD   1
                                      ZONE     1
  -----------------------------------------------------------------------------------

        CUMULATIVE VOLUMES      L**3       RATES FOR THIS TIME STEP      L**3/T
        ------------------                 ------------------------

              IN:                                      IN:
              ---                                      ---
             BOUNDARIES =       2.2219E-08            BOUNDARIES =       1.6139E-07
          CONSTANT HEAD =       2.0615E-02         CONSTANT HEAD =           0.1577
            ZONE CHANGE =       1.3625E-03           ZONE CHANGE =       6.6165E-03
       ZONE CHG TIP/TOE =       1.8697E-05      ZONE CHG TIP/TOE =       1.8762E-05
            ZONE MIXING =           0.0000           ZONE MIXING =           0.0000

               TOTAL IN =       2.1996E-02              TOTAL IN =           0.1643

             OUT:                                     OUT:
             ----                                     ----
             BOUNDARIES =       2.1945E-02            BOUNDARIES =           0.1642
          CONSTANT HEAD =           0.0000         CONSTANT HEAD =           0.0000
            ZONE CHANGE =       5.0531E-05           ZONE CHANGE =       1.5760E-04
       ZONE CHG TIP/TOE =       2.4566E-07      ZONE CHG TIP/TOE =       2.4004E-06
            ZONE MIXING =           0.0000           ZONE MIXING =           0.0000

              TOTAL OUT =       2.1996E-02             TOTAL OUT =           0.1643

               IN - OUT =       6.4075E-07              IN - OUT =      -6.9141E-06

    PERCENT DISCREPANCY =           0.00     PERCENT DISCREPANCY =          -0.00



                      VOLUMETRIC SWI ZONE BUDGET FOR ENTIRE MODEL
                     AT END OF TIME STEP  110 IN STRESS PERIOD   1
                                      ZONE     2
  -----------------------------------------------------------------------------------

        CUMULATIVE VOLUMES      L**3       RATES FOR THIS TIME STEP      L**3/T
        ------------------                 ------------------------

              IN:                                      IN:
              ---                                      ---
             BOUNDARIES =       8.6535E-14            BOUNDARIES =       6.4611E-13
          CONSTANT HEAD =       1.2613E-03         CONSTANT HEAD =       6.4643E-03
            ZONE CHANGE =       4.8130E-05           ZONE CHANGE =       1.4835E-04
       ZONE CHG TIP/TOE =       2.4566E-07      ZONE CHG TIP/TOE =       2.4004E-06
            ZONE MIXING =           0.0000           ZONE MIXING =           0.0000

               TOTAL IN =       1.3097E-03              TOTAL IN =       6.6151E-03

             OUT:                                     OUT:
             ----                                     ----
             BOUNDARIES =       8.6630E-14            BOUNDARIES =       6.8005E-13
          CONSTANT HEAD =           0.0000         CONSTANT HEAD =           0.0000
            ZONE CHANGE =       1.2940E-03           ZONE CHANGE =       6.5983E-03
       ZONE CHG TIP/TOE =       1.6296E-05      ZONE CHG TIP/TOE =       9.5128E-06
            ZONE MIXING =           0.0000           ZONE MIXING =           0.0000

              TOTAL OUT =       1.3102E-03             TOTAL OUT =       6.6079E-03

               IN - OUT =      -5.9558E-07              IN - OUT =       7.2345E-06

    PERCENT DISCREPANCY =          -0.05     PERCENT DISCREPANCY =           0.11


 HEAD WILL BE SAVED ON UNIT   51 AT END OF TIME STEP  110, STRESS PERIOD    1
1
  VOLUMETRIC BUDGET FOR ENTIRE MODEL AT END OF TIME STEP  110, STRESS PERIOD   1
  ------------------------------------------------------------------------------

     CUMULATIVE VOLUMES      L**3       RATES FOR THIS TIME STEP      L**3/T
     ------------------                 ------------------------

           IN:                                      IN:
           ---                                      ---
             STORAGE =       6.8512E-05               STORAGE =       1.7870E-05
       CONSTANT HEAD =       2.1877E-02         CONSTANT HEAD =           0.1641
               WELLS =           0.0000                 WELLS =           0.0000
          SWIADDTOCH =           0.0000            SWIADDTOCH =           0.0000

            TOTAL IN =       2.1945E-02              TOTAL IN =           0.1642

          OUT:                                     OUT:
          ----                                     ----
             STORAGE =       5.0365E-10               STORAGE =       4.9457E-09
       CONSTANT HEAD =           0.0000         CONSTANT HEAD =           0.0000
               WELLS =       2.1945E-02                 WELLS =           0.1642
          SWIADDTOCH =       5.0370E-10            SWIADDTOCH =           0.0000

           TOTAL OUT =       2.1945E-02             TOTAL OUT =           0.1642

            IN - OUT =      -1.3039E-08              IN - OUT =       1.4901E-08

 PERCENT DISCREPANCY =          -0.00     PERCENT DISCREPANCY =           0.00






         TIME SUMMARY AT END OF TIME STEP  110 IN STRESS PERIOD    1
                    SECONDS     MINUTES      HOURS       DAYS        YEARS
                    -----------------------------------------------------------
   TIME STEP LENGTH  105.00      1.7500     2.91667E-02 1.21528E-03 3.32726E-06
 STRESS PERIOD TIME  11550.      192.50      3.2083     0.13368     3.65998E-04
         TOTAL TIME  11550.      192.50      3.2083     0.13368     3.65998E-04
1

 SOLVING FOR HEAD 
     2 EXTERNAL ITERATIONS FOR TIME STEP 111 IN STRESS PERIOD    1

 MAXIMUM HEAD CHANGE FOR EACH ITERATION:

     HEAD CHANGE  LAY,ROW,COL      HEAD CHANGE  LAY,ROW,COL  
 ------------------------------------------------------------
    -1.952E-05 (  6,    1, 1000)  -2.202E-07 (  6,    1, 1000)



 OUTPUT CONTROL FOR STRESS PERIOD    1   TIME STEP  111
    PRINT BUDGET
    SAVE HEAD FOR ALL LAYERS
 SOLVING FOR ZETA FOR LAYER     6 ZONE     2

     497 UPPER PART EQS.       494 LOWER PART EQS.    BAND WIDTH + 1 =    5
 STRESS PERIOD=  1 TIMESTEP=111 LAYER=  6 ZONE=  2 ACTIVE CELLS=  991 NUMBER OF EQUATIONS=     991
 UBUDSV SAVING "      ZETASRF  1" ON UNIT 55 AT TIME STEP111, STRESS PERIOD    1


                      VOLUMETRIC SWI ZONE BUDGET FOR ENTIRE MODEL
                     AT END OF TIME STEP  111 IN STRESS PERIOD   1
                                      ZONE     1
  -----------------------------------------------------------------------------------

        CUMULATIVE VOLUMES      L**3       RATES FOR THIS TIME STEP      L**3/T
        ------------------                 ------------------------

              IN:                                      IN:
              ---                                      ---
             BOUNDARIES =       2.2432E-08            BOUNDARIES =       1.7516E-07
          CONSTANT HEAD =       2.0807E-02         CONSTANT HEAD =           0.1577
            ZONE CHANGE =       1.3705E-03           ZONE CHANGE =       6.5772E-03
       ZONE CHG TIP/TOE =       1.8714E-05      ZONE CHG TIP/TOE =       1.4009E-05
            ZONE MIXING =           0.0000           ZONE MIXING =           0.0000

               TOTAL IN =       2.2196E-02              TOTAL IN =           0.1643

             OUT:                                     OUT:
             ----                                     ----
             BOUNDARIES =       2.2145E-02            BOUNDARIES =           0.1642
          CONSTANT HEAD =           0.0000         CONSTANT HEAD =           0.0000
            ZONE CHANGE =       5.0726E-05           ZONE CHANGE =       1.6060E-04
       ZONE CHG TIP/TOE =       2.4899E-07      ZONE CHG TIP/TOE =       2.7378E-06
            ZONE MIXING =           0.0000           ZONE MIXING =           0.0000

              TOTAL OUT =       2.2196E-02             TOTAL OUT =           0.1643

               IN - OUT =       6.2771E-07              IN - OUT =      -8.8960E-06

    PERCENT DISCREPANCY =           0.00     PERCENT DISCREPANCY =          -0.01



                      VOLUMETRIC SWI ZONE BUDGET FOR ENTIRE MODEL
                     AT END OF TIME STEP  111 IN STRESS PERIOD   1
                                      ZONE     2
  -----------------------------------------------------------------------------------

        CUMULATIVE VOLUMES      L**3       RATES FOR THIS TIME STEP      L**3/T
        ------------------                 ------------------------

              IN:                                      IN:
              ---                                      ---
             BOUNDARIES =       8.7351E-14            BOUNDARIES =       6.7088E-13
          CONSTANT HEAD =       1.2691E-03         CONSTANT HEAD =       6.4191E-03
            ZONE CHANGE =       4.8315E-05           ZONE CHANGE =       1.5208E-04
       ZONE CHG TIP/TOE =       2.4899E-07      ZONE CHG TIP/TOE =       2.7378E-06
            ZONE MIXING =           0.0000           ZONE MIXING =           0.0000

               TOTAL IN =       1.3176E-03              TOTAL IN =       6.5740E-03

             OUT:                                     OUT:
             ----                                     ----
             BOUNDARIES =       8.7426E-14            BOUNDARIES =       6.5436E-13
          CONSTANT HEAD =           0.0000         CONSTANT HEAD =           0.0000
            ZONE CHANGE =       1.3019E-03           ZONE CHANGE =       6.5593E-03
       ZONE CHG TIP/TOE =       1.6303E-05      ZONE CHG TIP/TOE =       5.4916E-06
            ZONE MIXING =           0.0000           ZONE MIXING =           0.0000

              TOTAL OUT =       1.3182E-03             TOTAL OUT =       6.5648E-03

               IN - OUT =      -5.8429E-07              IN - OUT =       9.2168E-06

    PERCENT DISCREPANCY =          -0.04     PERCENT DISCREPANCY =           0.14


 HEAD WILL BE SAVED ON UNIT   51 AT END OF TIME STEP  111, STRESS PERIOD    1
1
  VOLUMETRIC BUDGET FOR ENTIRE MODEL AT END OF TIME STEP  111, STRESS PERIOD   1
  ------------------------------------------------------------------------------

     CUMULATIVE VOLUMES      L**3       RATES FOR THIS TIME STEP      L**3/T
     ------------------                 ------------------------

           IN:                                      IN:
           ---                                      ---
             STORAGE =       6.8534E-05               STORAGE =       1.7617E-05
       CONSTANT HEAD =       2.2076E-02         CONSTANT HEAD =           0.1641
               WELLS =           0.0000                 WELLS =           0.0000
          SWIADDTOCH =           0.0000            SWIADDTOCH =           0.0000

            TOTAL IN =       2.2145E-02              TOTAL IN =           0.1642

          OUT:                                     OUT:
          ----                                     ----
             STORAGE =       5.0966E-10               STORAGE =       4.9481E-09
       CONSTANT HEAD =           0.0000         CONSTANT HEAD =           0.0000
               WELLS =       2.2145E-02                 WELLS =           0.1642
          SWIADDTOCH =       5.0370E-10            SWIADDTOCH =           0.0000

           TOTAL OUT =       2.2145E-02             TOTAL OUT =           0.1642

            IN - OUT =      -1.3039E-08              IN - OUT =           0.0000

 PERCENT DISCREPANCY =          -0.00     PERCENT DISCREPANCY =           0.00






         TIME SUMMARY AT END OF TIME STEP  111 IN STRESS PERIOD    1
                    SECONDS     MINUTES      HOURS       DAYS        YEARS
                    -----------------------------------------------------------
   TIME STEP LENGTH  105.00      1.7500     2.91667E-02 1.21528E-03 3.32726E-06
 STRESS PERIOD TIME  11655.      194.25      3.2375     0.13490     3.69325E-04
         TOTAL TIME  11655.      194.25      3.2375     0.13490     3.69325E-04
1

 SOLVING FOR HEAD 
     2 EXTERNAL ITERATIONS FOR TIME STEP 112 IN STRESS PERIOD    1

 MAXIMUM HEAD CHANGE FOR EACH ITERATION:

     HEAD CHANGE  LAY,ROW,COL      HEAD CHANGE  LAY,ROW,COL  
 ------------------------------------------------------------
    -1.958E-05 (  6,    1, 1000)  -2.214E-07 (  6,    1,  999)



 OUTPUT CONTROL FOR STRESS PERIOD    1   TIME STEP  112
    PRINT BUDGET
    SAVE HEAD FOR ALL LAYERS
 SOLVING FOR ZETA FOR LAYER     6 ZONE     2

     494 UPPER PART EQS.       497 LOWER PART EQS.    BAND WIDTH + 1 =    4
 STRESS PERIOD=  1 TIMESTEP=112 LAYER=  6 ZONE=  2 ACTIVE CELLS=  991 NUMBER OF EQUATIONS=     991
 UBUDSV SAVING "      ZETASRF  1" ON UNIT 55 AT TIME STEP112, STRESS PERIOD    1


                      VOLUMETRIC SWI ZONE BUDGET FOR ENTIRE MODEL
                     AT END OF TIME STEP  112 IN STRESS PERIOD   1
                                      ZONE     1
  -----------------------------------------------------------------------------------

        CUMULATIVE VOLUMES      L**3       RATES FOR THIS TIME STEP      L**3/T
        ------------------                 ------------------------

              IN:                                      IN:
              ---                                      ---
             BOUNDARIES =       2.2639E-08            BOUNDARIES =       1.7053E-07
          CONSTANT HEAD =       2.0999E-02         CONSTANT HEAD =           0.1578
            ZONE CHANGE =       1.3784E-03           ZONE CHANGE =       6.4976E-03
       ZONE CHG TIP/TOE =       1.8722E-05      ZONE CHG TIP/TOE =       6.8600E-06
            ZONE MIXING =           0.0000           ZONE MIXING =           0.0000

               TOTAL IN =       2.2396E-02              TOTAL IN =           0.1643

             OUT:                                     OUT:
             ----                                     ----
             BOUNDARIES =       2.2344E-02            BOUNDARIES =           0.1642
          CONSTANT HEAD =           0.0000         CONSTANT HEAD =           0.0000
            ZONE CHANGE =       5.0866E-05           ZONE CHANGE =       1.1566E-04
       ZONE CHG TIP/TOE =       2.5116E-07      ZONE CHG TIP/TOE =       1.7816E-06
            ZONE MIXING =           0.0000           ZONE MIXING =           0.0000

              TOTAL OUT =       2.2395E-02             TOTAL OUT =           0.1643

               IN - OUT =       6.1840E-07              IN - OUT =      -5.2303E-06

    PERCENT DISCREPANCY =           0.00     PERCENT DISCREPANCY =          -0.00



                      VOLUMETRIC SWI ZONE BUDGET FOR ENTIRE MODEL
                     AT END OF TIME STEP  112 IN STRESS PERIOD   1
                                      ZONE     2
  -----------------------------------------------------------------------------------

        CUMULATIVE VOLUMES      L**3       RATES FOR THIS TIME STEP      L**3/T
        ------------------                 ------------------------

              IN:                                      IN:
              ---                                      ---
             BOUNDARIES =       8.8112E-14            BOUNDARIES =       6.2637E-13
          CONSTANT HEAD =       1.2768E-03         CONSTANT HEAD =       6.3747E-03
            ZONE CHANGE =       4.8451E-05           ZONE CHANGE =       1.1160E-04
       ZONE CHG TIP/TOE =       2.5116E-07      ZONE CHG TIP/TOE =       1.7816E-06
            ZONE MIXING =           0.0000           ZONE MIXING =           0.0000

               TOTAL IN =       1.3255E-03              TOTAL IN =       6.4881E-03

             OUT:                                     OUT:
             ----                                     ----
             BOUNDARIES =       8.8186E-14            BOUNDARIES =       6.2577E-13
          CONSTANT HEAD =           0.0000         CONSTANT HEAD =           0.0000
            ZONE CHANGE =       1.3098E-03           ZONE CHANGE =       6.4797E-03
       ZONE CHG TIP/TOE =       1.6306E-05      ZONE CHG TIP/TOE =       2.7987E-06
            ZONE MIXING =           0.0000           ZONE MIXING =           0.0000

              TOTAL OUT =       1.3261E-03             TOTAL OUT =       6.4825E-03

               IN - OUT =      -5.7765E-07              IN - OUT =       5.5456E-06

    PERCENT DISCREPANCY =          -0.04     PERCENT DISCREPANCY =           0.09


 HEAD WILL BE SAVED ON UNIT   51 AT END OF TIME STEP  112, STRESS PERIOD    1
1
  VOLUMETRIC BUDGET FOR ENTIRE MODEL AT END OF TIME STEP  112, STRESS PERIOD   1
  ------------------------------------------------------------------------------

     CUMULATIVE VOLUMES      L**3       RATES FOR THIS TIME STEP      L**3/T
     ------------------                 ------------------------

           IN:                                      IN:
           ---                                      ---
             STORAGE =       6.8555E-05               STORAGE =       1.7571E-05
       CONSTANT HEAD =       2.2275E-02         CONSTANT HEAD =           0.1641
               WELLS =           0.0000                 WELLS =           0.0000
          SWIADDTOCH =           0.0000            SWIADDTOCH =           0.0000

            TOTAL IN =       2.2344E-02              TOTAL IN =           0.1642

          OUT:                                     OUT:
          ----                                     ----
             STORAGE =       5.1453E-10               STORAGE =       4.0103E-09
       CONSTANT HEAD =           0.0000         CONSTANT HEAD =           0.0000
               WELLS =       2.2344E-02                 WELLS =           0.1642
          SWIADDTOCH =       5.0370E-10            SWIADDTOCH =           0.0000

           TOTAL OUT =       2.2344E-02             TOTAL OUT =           0.1642

            IN - OUT =      -1.4901E-08              IN - OUT =      -1.4901E-08

 PERCENT DISCREPANCY =          -0.00     PERCENT DISCREPANCY =          -0.00






         TIME SUMMARY AT END OF TIME STEP  112 IN STRESS PERIOD    1
                    SECONDS     MINUTES      HOURS       DAYS        YEARS
                    -----------------------------------------------------------
   TIME STEP LENGTH  105.00      1.7500     2.91667E-02 1.21528E-03 3.32726E-06
 STRESS PERIOD TIME  11760.      196.00      3.2667     0.13611     3.72652E-04
         TOTAL TIME  11760.      196.00      3.2667     0.13611     3.72652E-04
1

 SOLVING FOR HEAD 
     2 EXTERNAL ITERATIONS FOR TIME STEP 113 IN STRESS PERIOD    1

 MAXIMUM HEAD CHANGE FOR EACH ITERATION:

     HEAD CHANGE  LAY,ROW,COL      HEAD CHANGE  LAY,ROW,COL  
 ------------------------------------------------------------
    -1.957E-05 (  6,    1, 1000)  -2.207E-07 (  6,    1, 1000)



 OUTPUT CONTROL FOR STRESS PERIOD    1   TIME STEP  113
    PRINT BUDGET
    SAVE HEAD FOR ALL LAYERS
 SOLVING FOR ZETA FOR LAYER     6 ZONE     2

     496 UPPER PART EQS.       497 LOWER PART EQS.    BAND WIDTH + 1 =    4
 STRESS PERIOD=  1 TIMESTEP=113 LAYER=  6 ZONE=  2 ACTIVE CELLS=  993 NUMBER OF EQUATIONS=     993
 UBUDSV SAVING "      ZETASRF  1" ON UNIT 55 AT TIME STEP113, STRESS PERIOD    1


                      VOLUMETRIC SWI ZONE BUDGET FOR ENTIRE MODEL
                     AT END OF TIME STEP  113 IN STRESS PERIOD   1
                                      ZONE     1
  -----------------------------------------------------------------------------------

        CUMULATIVE VOLUMES      L**3       RATES FOR THIS TIME STEP      L**3/T
        ------------------                 ------------------------

              IN:                                      IN:
              ---                                      ---
             BOUNDARIES =       2.2846E-08            BOUNDARIES =       1.7075E-07
          CONSTANT HEAD =       2.1190E-02         CONSTANT HEAD =           0.1578
            ZONE CHANGE =       1.3870E-03           ZONE CHANGE =       7.0748E-03
       ZONE CHG TIP/TOE =       1.8727E-05      ZONE CHG TIP/TOE =       4.0833E-06
            ZONE MIXING =           0.0000           ZONE MIXING =           0.0000

               TOTAL IN =       2.2596E-02              TOTAL IN =           0.1649

             OUT:                                     OUT:
             ----                                     ----
             BOUNDARIES =       2.2544E-02            BOUNDARIES =           0.1642
          CONSTANT HEAD =           0.0000         CONSTANT HEAD =           0.0000
            ZONE CHANGE =       5.1763E-05           ZONE CHANGE =       7.3800E-04
       ZONE CHG TIP/TOE =       2.5383E-07      ZONE CHG TIP/TOE =       2.2003E-06
            ZONE MIXING =           0.0000           ZONE MIXING =           0.0000

              TOTAL OUT =       2.2596E-02             TOTAL OUT =           0.1649

               IN - OUT =       6.0908E-07              IN - OUT =      -9.1195E-06

    PERCENT DISCREPANCY =           0.00     PERCENT DISCREPANCY =          -0.01



                      VOLUMETRIC SWI ZONE BUDGET FOR ENTIRE MODEL
                     AT END OF TIME STEP  113 IN STRESS PERIOD   1
                                      ZONE     2
  -----------------------------------------------------------------------------------

        CUMULATIVE VOLUMES      L**3       RATES FOR THIS TIME STEP      L**3/T
        ------------------                 ------------------------

              IN:                                      IN:
              ---                                      ---
             BOUNDARIES =       8.8891E-14            BOUNDARIES =       6.4131E-13
          CONSTANT HEAD =       1.2845E-03         CONSTANT HEAD =       6.3303E-03
            ZONE CHANGE =       4.9344E-05           ZONE CHANGE =       7.3504E-04
       ZONE CHG TIP/TOE =       2.5383E-07      ZONE CHG TIP/TOE =       2.2003E-06
            ZONE MIXING =           0.0000           ZONE MIXING =           0.0000

               TOTAL IN =       1.3341E-03              TOTAL IN =       7.0676E-03

             OUT:                                     OUT:
             ----                                     ----
             BOUNDARIES =       8.9027E-14            BOUNDARIES =       6.9211E-13
          CONSTANT HEAD =           0.0000         CONSTANT HEAD =           0.0000
            ZONE CHANGE =       1.3184E-03           ZONE CHANGE =       7.0570E-03
       ZONE CHG TIP/TOE =       1.6307E-05      ZONE CHG TIP/TOE =       1.1280E-06
            ZONE MIXING =           0.0000           ZONE MIXING =           0.0000

              TOTAL OUT =       1.3347E-03             TOTAL OUT =       7.0581E-03

               IN - OUT =      -5.6601E-07              IN - OUT =       9.4124E-06

    PERCENT DISCREPANCY =          -0.04     PERCENT DISCREPANCY =           0.13


 HEAD WILL BE SAVED ON UNIT   51 AT END OF TIME STEP  113, STRESS PERIOD    1
1
  VOLUMETRIC BUDGET FOR ENTIRE MODEL AT END OF TIME STEP  113, STRESS PERIOD   1
  ------------------------------------------------------------------------------

     CUMULATIVE VOLUMES      L**3       RATES FOR THIS TIME STEP      L**3/T
     ------------------                 ------------------------

           IN:                                      IN:
           ---                                      ---
             STORAGE =       6.8576E-05               STORAGE =       1.7523E-05
       CONSTANT HEAD =       2.2475E-02         CONSTANT HEAD =           0.1641
               WELLS =           0.0000                 WELLS =           0.0000
          SWIADDTOCH =           0.0000            SWIADDTOCH =           0.0000

            TOTAL IN =       2.2544E-02              TOTAL IN =           0.1642

          OUT:                                     OUT:
          ----                                     ----
             STORAGE =       5.1940E-10               STORAGE =       4.0078E-09
       CONSTANT HEAD =           0.0000         CONSTANT HEAD =           0.0000
               WELLS =       2.2544E-02                 WELLS =           0.1642
          SWIADDTOCH =       5.6592E-10            SWIADDTOCH =       5.1199E-08

           TOTAL OUT =       2.2544E-02             TOTAL OUT =           0.1642

            IN - OUT =      -1.3039E-08              IN - OUT =       1.4901E-08

 PERCENT DISCREPANCY =          -0.00     PERCENT DISCREPANCY =           0.00






         TIME SUMMARY AT END OF TIME STEP  113 IN STRESS PERIOD    1
                    SECONDS     MINUTES      HOURS       DAYS        YEARS
                    -----------------------------------------------------------
   TIME STEP LENGTH  105.00      1.7500     2.91667E-02 1.21528E-03 3.32726E-06
 STRESS PERIOD TIME  11865.      197.75      3.2958     0.13733     3.75980E-04
         TOTAL TIME  11865.      197.75      3.2958     0.13733     3.75980E-04
1

 SOLVING FOR HEAD 
     2 EXTERNAL ITERATIONS FOR TIME STEP 114 IN STRESS PERIOD    1

 MAXIMUM HEAD CHANGE FOR EACH ITERATION:

     HEAD CHANGE  LAY,ROW,COL      HEAD CHANGE  LAY,ROW,COL  
 ------------------------------------------------------------
    -1.957E-05 (  6,    1, 1000)  -2.207E-07 (  6,    1, 1000)



 OUTPUT CONTROL FOR STRESS PERIOD    1   TIME STEP  114
    PRINT BUDGET
    SAVE HEAD FOR ALL LAYERS
 SOLVING FOR ZETA FOR LAYER     6 ZONE     2

     498 UPPER PART EQS.       498 LOWER PART EQS.    BAND WIDTH + 1 =    4
 STRESS PERIOD=  1 TIMESTEP=114 LAYER=  6 ZONE=  2 ACTIVE CELLS=  996 NUMBER OF EQUATIONS=     996
 UBUDSV SAVING "      ZETASRF  1" ON UNIT 55 AT TIME STEP114, STRESS PERIOD    1


                      VOLUMETRIC SWI ZONE BUDGET FOR ENTIRE MODEL
                     AT END OF TIME STEP  114 IN STRESS PERIOD   1
                                      ZONE     1
  -----------------------------------------------------------------------------------

        CUMULATIVE VOLUMES      L**3       RATES FOR THIS TIME STEP      L**3/T
        ------------------                 ------------------------

              IN:                                      IN:
              ---                                      ---
             BOUNDARIES =       2.3050E-08            BOUNDARIES =       1.6777E-07
          CONSTANT HEAD =       2.1382E-02         CONSTANT HEAD =           0.1579
            ZONE CHANGE =       1.3958E-03           ZONE CHANGE =       7.2141E-03
       ZONE CHG TIP/TOE =       1.8741E-05      ZONE CHG TIP/TOE =       1.1597E-05
            ZONE MIXING =           0.0000           ZONE MIXING =           0.0000

               TOTAL IN =       2.2797E-02              TOTAL IN =           0.1651

             OUT:                                     OUT:
             ----                                     ----
             BOUNDARIES =       2.2743E-02            BOUNDARIES =           0.1642
          CONSTANT HEAD =           0.0000         CONSTANT HEAD =           0.0000
            ZONE CHANGE =       5.2874E-05           ZONE CHANGE =       9.1431E-04
       ZONE CHG TIP/TOE =       2.5411E-07      ZONE CHG TIP/TOE =       2.3507E-07
            ZONE MIXING =           0.0000           ZONE MIXING =           0.0000

              TOTAL OUT =       2.2796E-02             TOTAL OUT =           0.1651

               IN - OUT =       6.1467E-07              IN - OUT =       5.8264E-06

    PERCENT DISCREPANCY =           0.00     PERCENT DISCREPANCY =           0.00



                      VOLUMETRIC SWI ZONE BUDGET FOR ENTIRE MODEL
                     AT END OF TIME STEP  114 IN STRESS PERIOD   1
                                      ZONE     2
  -----------------------------------------------------------------------------------

        CUMULATIVE VOLUMES      L**3       RATES FOR THIS TIME STEP      L**3/T
        ------------------                 ------------------------

              IN:                                      IN:
              ---                                      ---
             BOUNDARIES =       8.9707E-14            BOUNDARIES =       6.7099E-13
          CONSTANT HEAD =       1.2922E-03         CONSTANT HEAD =       6.2879E-03
            ZONE CHANGE =       5.0441E-05           ZONE CHANGE =       9.0271E-04
       ZONE CHG TIP/TOE =       2.5411E-07      ZONE CHG TIP/TOE =       2.3507E-07
            ZONE MIXING =           0.0000           ZONE MIXING =           0.0000

               TOTAL IN =       1.3429E-03              TOTAL IN =       7.1908E-03

             OUT:                                     OUT:
             ----                                     ----
             BOUNDARIES =       8.9798E-14            BOUNDARIES =       6.3456E-13
          CONSTANT HEAD =           0.0000         CONSTANT HEAD =           0.0000
            ZONE CHANGE =       1.3271E-03           ZONE CHANGE =       7.1963E-03
       ZONE CHG TIP/TOE =       1.6307E-05      ZONE CHG TIP/TOE =       3.5838E-09
            ZONE MIXING =           0.0000           ZONE MIXING =           0.0000

              TOTAL OUT =       1.3434E-03             TOTAL OUT =       7.1964E-03

               IN - OUT =      -5.7276E-07              IN - OUT =      -5.5213E-06

    PERCENT DISCREPANCY =          -0.04     PERCENT DISCREPANCY =          -0.08


 HEAD WILL BE SAVED ON UNIT   51 AT END OF TIME STEP  114, STRESS PERIOD    1
1
  VOLUMETRIC BUDGET FOR ENTIRE MODEL AT END OF TIME STEP  114, STRESS PERIOD   1
  ------------------------------------------------------------------------------

     CUMULATIVE VOLUMES      L**3       RATES FOR THIS TIME STEP      L**3/T
     ------------------                 ------------------------

           IN:                                      IN:
           ---                                      ---
             STORAGE =       6.8598E-05               STORAGE =       1.7499E-05
       CONSTANT HEAD =       2.2674E-02         CONSTANT HEAD =           0.1641
               WELLS =           0.0000                 WELLS =           0.0000
          SWIADDTOCH =           0.0000            SWIADDTOCH =           0.0000

            TOTAL IN =       2.2743E-02              TOTAL IN =           0.1642

          OUT:                                     OUT:
          ----                                     ----
             STORAGE =       5.2428E-10               STORAGE =       4.0123E-09
       CONSTANT HEAD =           0.0000         CONSTANT HEAD =           0.0000
               WELLS =       2.2743E-02                 WELLS =           0.1642
          SWIADDTOCH =       5.6592E-10            SWIADDTOCH =           0.0000

           TOTAL OUT =       2.2743E-02             TOTAL OUT =           0.1642

            IN - OUT =      -1.3039E-08              IN - OUT =       1.4901E-08

 PERCENT DISCREPANCY =          -0.00     PERCENT DISCREPANCY =           0.00






         TIME SUMMARY AT END OF TIME STEP  114 IN STRESS PERIOD    1
                    SECONDS     MINUTES      HOURS       DAYS        YEARS
                    -----------------------------------------------------------
   TIME STEP LENGTH  105.00      1.7500     2.91667E-02 1.21528E-03 3.32726E-06
 STRESS PERIOD TIME  11970.      199.50      3.3250     0.13854     3.79307E-04
         TOTAL TIME  11970.      199.50      3.3250     0.13854     3.79307E-04
1

 SOLVING FOR HEAD 
     2 EXTERNAL ITERATIONS FOR TIME STEP 115 IN STRESS PERIOD    1

 MAXIMUM HEAD CHANGE FOR EACH ITERATION:

     HEAD CHANGE  LAY,ROW,COL      HEAD CHANGE  LAY,ROW,COL  
 ------------------------------------------------------------
    -1.969E-05 (  6,    1, 1000)  -2.238E-07 (  6,    1,  999)



 OUTPUT CONTROL FOR STRESS PERIOD    1   TIME STEP  115
    PRINT BUDGET
    SAVE HEAD FOR ALL LAYERS
 SOLVING FOR ZETA FOR LAYER     6 ZONE     2

     495 UPPER PART EQS.       495 LOWER PART EQS.    BAND WIDTH + 1 =    3
 STRESS PERIOD=  1 TIMESTEP=115 LAYER=  6 ZONE=  2 ACTIVE CELLS=  990 NUMBER OF EQUATIONS=     990
 UBUDSV SAVING "      ZETASRF  1" ON UNIT 55 AT TIME STEP115, STRESS PERIOD    1


                      VOLUMETRIC SWI ZONE BUDGET FOR ENTIRE MODEL
                     AT END OF TIME STEP  115 IN STRESS PERIOD   1
                                      ZONE     1
  -----------------------------------------------------------------------------------

        CUMULATIVE VOLUMES      L**3       RATES FOR THIS TIME STEP      L**3/T
        ------------------                 ------------------------

              IN:                                      IN:
              ---                                      ---
             BOUNDARIES =       2.3258E-08            BOUNDARIES =       1.7053E-07
          CONSTANT HEAD =       2.1574E-02         CONSTANT HEAD =           0.1579
            ZONE CHANGE =       1.4041E-03           ZONE CHANGE =       6.8981E-03
       ZONE CHG TIP/TOE =       1.8761E-05      ZONE CHG TIP/TOE =       1.6349E-05
            ZONE MIXING =           0.0000           ZONE MIXING =           0.0000

               TOTAL IN =       2.2997E-02              TOTAL IN =           0.1648

             OUT:                                     OUT:
             ----                                     ----
             BOUNDARIES =       2.2943E-02            BOUNDARIES =           0.1642
          CONSTANT HEAD =           0.0000         CONSTANT HEAD =           0.0000
            ZONE CHANGE =       5.3660E-05           ZONE CHANGE =       6.4609E-04
       ZONE CHG TIP/TOE =       2.5711E-07      ZONE CHG TIP/TOE =       2.4625E-06
            ZONE MIXING =           0.0000           ZONE MIXING =           0.0000

              TOTAL OUT =       2.2996E-02             TOTAL OUT =           0.1648

               IN - OUT =       6.1654E-07              IN - OUT =       4.4703E-08

    PERCENT DISCREPANCY =           0.00     PERCENT DISCREPANCY =           0.00



                      VOLUMETRIC SWI ZONE BUDGET FOR ENTIRE MODEL
                     AT END OF TIME STEP  115 IN STRESS PERIOD   1
                                      ZONE     2
  -----------------------------------------------------------------------------------

        CUMULATIVE VOLUMES      L**3       RATES FOR THIS TIME STEP      L**3/T
        ------------------                 ------------------------

              IN:                                      IN:
              ---                                      ---
             BOUNDARIES =       9.0483E-14            BOUNDARIES =       6.3900E-13
          CONSTANT HEAD =       1.2998E-03         CONSTANT HEAD =       6.2482E-03
            ZONE CHANGE =       5.1212E-05           ZONE CHANGE =       6.3403E-04
       ZONE CHG TIP/TOE =       2.5711E-07      ZONE CHG TIP/TOE =       2.4625E-06
            ZONE MIXING =           0.0000           ZONE MIXING =           0.0000

               TOTAL IN =       1.3512E-03              TOTAL IN =       6.8847E-03

             OUT:                                     OUT:
             ----                                     ----
             BOUNDARIES =       9.0591E-14            BOUNDARIES =       6.5200E-13
          CONSTANT HEAD =           0.0000         CONSTANT HEAD =           0.0000
            ZONE CHANGE =       1.3355E-03           ZONE CHANGE =       6.8801E-03
       ZONE CHG TIP/TOE =       1.6313E-05      ZONE CHG TIP/TOE =       4.2917E-06
            ZONE MIXING =           0.0000           ZONE MIXING =           0.0000

              TOTAL OUT =       1.3518E-03             TOTAL OUT =       6.8844E-03

               IN - OUT =      -5.7241E-07              IN - OUT =       2.6124E-07

    PERCENT DISCREPANCY =          -0.04     PERCENT DISCREPANCY =           0.00


 HEAD WILL BE SAVED ON UNIT   51 AT END OF TIME STEP  115, STRESS PERIOD    1
1
  VOLUMETRIC BUDGET FOR ENTIRE MODEL AT END OF TIME STEP  115, STRESS PERIOD   1
  ------------------------------------------------------------------------------

     CUMULATIVE VOLUMES      L**3       RATES FOR THIS TIME STEP      L**3/T
     ------------------                 ------------------------

           IN:                                      IN:
           ---                                      ---
             STORAGE =       6.8619E-05               STORAGE =       1.7656E-05
       CONSTANT HEAD =       2.2874E-02         CONSTANT HEAD =           0.1641
               WELLS =           0.0000                 WELLS =           0.0000
          SWIADDTOCH =           0.0000            SWIADDTOCH =           0.0000

            TOTAL IN =       2.2943E-02              TOTAL IN =           0.1642

          OUT:                                     OUT:
          ----                                     ----
             STORAGE =       5.3028E-10               STORAGE =       4.9397E-09
       CONSTANT HEAD =           0.0000         CONSTANT HEAD =           0.0000
               WELLS =       2.2943E-02                 WELLS =           0.1642
          SWIADDTOCH =       5.6592E-10            SWIADDTOCH =           0.0000

           TOTAL OUT =       2.2943E-02             TOTAL OUT =           0.1642

            IN - OUT =      -1.3039E-08              IN - OUT =       1.4901E-08

 PERCENT DISCREPANCY =          -0.00     PERCENT DISCREPANCY =           0.00






         TIME SUMMARY AT END OF TIME STEP  115 IN STRESS PERIOD    1
                    SECONDS     MINUTES      HOURS       DAYS        YEARS
                    -----------------------------------------------------------
   TIME STEP LENGTH  105.00      1.7500     2.91667E-02 1.21528E-03 3.32726E-06
 STRESS PERIOD TIME  12075.      201.25      3.3542     0.13976     3.82634E-04
         TOTAL TIME  12075.      201.25      3.3542     0.13976     3.82634E-04
1

 SOLVING FOR HEAD 
     2 EXTERNAL ITERATIONS FOR TIME STEP 116 IN STRESS PERIOD    1

 MAXIMUM HEAD CHANGE FOR EACH ITERATION:

     HEAD CHANGE  LAY,ROW,COL      HEAD CHANGE  LAY,ROW,COL  
 ------------------------------------------------------------
    -1.940E-05 (  6,    1, 1000)  -2.164E-07 (  6,    1, 1000)



 OUTPUT CONTROL FOR STRESS PERIOD    1   TIME STEP  116
    PRINT BUDGET
    SAVE HEAD FOR ALL LAYERS
 SOLVING FOR ZETA FOR LAYER     6 ZONE     2

     496 UPPER PART EQS.       497 LOWER PART EQS.    BAND WIDTH + 1 =    4
 STRESS PERIOD=  1 TIMESTEP=116 LAYER=  6 ZONE=  2 ACTIVE CELLS=  993 NUMBER OF EQUATIONS=     993
 UBUDSV SAVING "      ZETASRF  1" ON UNIT 55 AT TIME STEP116, STRESS PERIOD    1


                      VOLUMETRIC SWI ZONE BUDGET FOR ENTIRE MODEL
                     AT END OF TIME STEP  116 IN STRESS PERIOD   1
                                      ZONE     1
  -----------------------------------------------------------------------------------

        CUMULATIVE VOLUMES      L**3       RATES FOR THIS TIME STEP      L**3/T
        ------------------                 ------------------------

              IN:                                      IN:
              ---                                      ---
             BOUNDARIES =       2.3457E-08            BOUNDARIES =       1.6412E-07
          CONSTANT HEAD =       2.1766E-02         CONSTANT HEAD =           0.1579
            ZONE CHANGE =       1.4123E-03           ZONE CHANGE =       6.7505E-03
       ZONE CHG TIP/TOE =       1.8793E-05      ZONE CHG TIP/TOE =       2.6896E-05
            ZONE MIXING =           0.0000           ZONE MIXING =           0.0000

               TOTAL IN =       2.3197E-02              TOTAL IN =           0.1647

             OUT:                                     OUT:
             ----                                     ----
             BOUNDARIES =       2.3142E-02            BOUNDARIES =           0.1642
          CONSTANT HEAD =           0.0000         CONSTANT HEAD =           0.0000
            ZONE CHANGE =       5.4318E-05           ZONE CHANGE =       5.4141E-04
       ZONE CHG TIP/TOE =       2.5896E-07      ZONE CHG TIP/TOE =       1.5223E-06
            ZONE MIXING =           0.0000           ZONE MIXING =           0.0000

              TOTAL OUT =       2.3197E-02             TOTAL OUT =           0.1647

               IN - OUT =       6.2957E-07              IN - OUT =       9.6262E-06

    PERCENT DISCREPANCY =           0.00     PERCENT DISCREPANCY =           0.01



                      VOLUMETRIC SWI ZONE BUDGET FOR ENTIRE MODEL
                     AT END OF TIME STEP  116 IN STRESS PERIOD   1
                                      ZONE     2
  -----------------------------------------------------------------------------------

        CUMULATIVE VOLUMES      L**3       RATES FOR THIS TIME STEP      L**3/T
        ------------------                 ------------------------

              IN:                                      IN:
              ---                                      ---
             BOUNDARIES =       9.1280E-14            BOUNDARIES =       6.5551E-13
          CONSTANT HEAD =       1.3073E-03         CONSTANT HEAD =       6.2075E-03
            ZONE CHANGE =       5.1847E-05           ZONE CHANGE =       5.2303E-04
       ZONE CHG TIP/TOE =       2.5896E-07      ZONE CHG TIP/TOE =       1.5223E-06
            ZONE MIXING =           0.0000           ZONE MIXING =           0.0000

               TOTAL IN =       1.3594E-03              TOTAL IN =       6.7320E-03

             OUT:                                     OUT:
             ----                                     ----
             BOUNDARIES =       9.1347E-14            BOUNDARIES =       6.2205E-13
          CONSTANT HEAD =           0.0000         CONSTANT HEAD =           0.0000
            ZONE CHANGE =       1.3437E-03           ZONE CHANGE =       6.7328E-03
       ZONE CHG TIP/TOE =       1.6323E-05      ZONE CHG TIP/TOE =       8.5169E-06
            ZONE MIXING =           0.0000           ZONE MIXING =           0.0000

              TOTAL OUT =       1.3600E-03             TOTAL OUT =       6.7414E-03

               IN - OUT =      -5.8382E-07              IN - OUT =      -9.3235E-06

    PERCENT DISCREPANCY =          -0.04     PERCENT DISCREPANCY =          -0.14


 HEAD WILL BE SAVED ON UNIT   51 AT END OF TIME STEP  116, STRESS PERIOD    1
1
  VOLUMETRIC BUDGET FOR ENTIRE MODEL AT END OF TIME STEP  116, STRESS PERIOD   1
  ------------------------------------------------------------------------------

     CUMULATIVE VOLUMES      L**3       RATES FOR THIS TIME STEP      L**3/T
     ------------------                 ------------------------

           IN:                                      IN:
           ---                                      ---
             STORAGE =       6.8640E-05               STORAGE =       1.7328E-05
       CONSTANT HEAD =       2.3073E-02         CONSTANT HEAD =           0.1641
               WELLS =           0.0000                 WELLS =           0.0000
          SWIADDTOCH =           0.0000            SWIADDTOCH =           0.0000

            TOTAL IN =       2.3142E-02              TOTAL IN =           0.1642

          OUT:                                     OUT:
          ----                                     ----
             STORAGE =       5.3516E-10               STORAGE =       4.0147E-09
       CONSTANT HEAD =           0.0000         CONSTANT HEAD =           0.0000
               WELLS =       2.3142E-02                 WELLS =           0.1642
          SWIADDTOCH =       5.6592E-10            SWIADDTOCH =           0.0000

           TOTAL OUT =       2.3142E-02             TOTAL OUT =           0.1642

            IN - OUT =      -1.3039E-08              IN - OUT =       2.9802E-08

 PERCENT DISCREPANCY =          -0.00     PERCENT DISCREPANCY =           0.00






         TIME SUMMARY AT END OF TIME STEP  116 IN STRESS PERIOD    1
                    SECONDS     MINUTES      HOURS       DAYS        YEARS
                    -----------------------------------------------------------
   TIME STEP LENGTH  105.00      1.7500     2.91667E-02 1.21528E-03 3.32726E-06
 STRESS PERIOD TIME  12180.      203.00      3.3833     0.14097     3.85961E-04
         TOTAL TIME  12180.      203.00      3.3833     0.14097     3.85961E-04
1

 SOLVING FOR HEAD 
     2 EXTERNAL ITERATIONS FOR TIME STEP 117 IN STRESS PERIOD    1

 MAXIMUM HEAD CHANGE FOR EACH ITERATION:

     HEAD CHANGE  LAY,ROW,COL      HEAD CHANGE  LAY,ROW,COL  
 ------------------------------------------------------------
    -1.953E-05 (  6,    1, 1000)  -2.193E-07 (  6,    1, 1000)



 OUTPUT CONTROL FOR STRESS PERIOD    1   TIME STEP  117
    PRINT BUDGET
    SAVE HEAD FOR ALL LAYERS
 SOLVING FOR ZETA FOR LAYER     6 ZONE     2

     495 UPPER PART EQS.       494 LOWER PART EQS.    BAND WIDTH + 1 =    3
 STRESS PERIOD=  1 TIMESTEP=117 LAYER=  6 ZONE=  2 ACTIVE CELLS=  989 NUMBER OF EQUATIONS=     989
 UBUDSV SAVING "      ZETASRF  1" ON UNIT 55 AT TIME STEP117, STRESS PERIOD    1


                      VOLUMETRIC SWI ZONE BUDGET FOR ENTIRE MODEL
                     AT END OF TIME STEP  117 IN STRESS PERIOD   1
                                      ZONE     1
  -----------------------------------------------------------------------------------

        CUMULATIVE VOLUMES      L**3       RATES FOR THIS TIME STEP      L**3/T
        ------------------                 ------------------------

              IN:                                      IN:
              ---                                      ---
             BOUNDARIES =       2.3654E-08            BOUNDARIES =       1.6185E-07
          CONSTANT HEAD =       2.1958E-02         CONSTANT HEAD =           0.1580
            ZONE CHANGE =       1.4204E-03           ZONE CHANGE =       6.6180E-03
       ZONE CHG TIP/TOE =       1.8831E-05      ZONE CHG TIP/TOE =       3.0705E-05
            ZONE MIXING =           0.0000           ZONE MIXING =           0.0000

               TOTAL IN =       2.3397E-02              TOTAL IN =           0.1646

             OUT:                                     OUT:
             ----                                     ----
             BOUNDARIES =       2.3342E-02            BOUNDARIES =           0.1642
          CONSTANT HEAD =           0.0000         CONSTANT HEAD =           0.0000
            ZONE CHANGE =       5.4872E-05           ZONE CHANGE =       4.5648E-04
       ZONE CHG TIP/TOE =       2.6088E-07      ZONE CHG TIP/TOE =       1.5851E-06
            ZONE MIXING =           0.0000           ZONE MIXING =           0.0000

              TOTAL OUT =       2.3397E-02             TOTAL OUT =           0.1646

               IN - OUT =       6.3889E-07              IN - OUT =       5.5730E-06

    PERCENT DISCREPANCY =           0.00     PERCENT DISCREPANCY =           0.00



                      VOLUMETRIC SWI ZONE BUDGET FOR ENTIRE MODEL
                     AT END OF TIME STEP  117 IN STRESS PERIOD   1
                                      ZONE     2
  -----------------------------------------------------------------------------------

        CUMULATIVE VOLUMES      L**3       RATES FOR THIS TIME STEP      L**3/T
        ------------------                 ------------------------

              IN:                                      IN:
              ---                                      ---
             BOUNDARIES =       9.2019E-14            BOUNDARIES =       6.0848E-13
          CONSTANT HEAD =       1.3148E-03         CONSTANT HEAD =       6.1677E-03
            ZONE CHANGE =       5.2383E-05           ZONE CHANGE =       4.4050E-04
       ZONE CHG TIP/TOE =       2.6088E-07      ZONE CHG TIP/TOE =       1.5851E-06
            ZONE MIXING =           0.0000           ZONE MIXING =           0.0000

               TOTAL IN =       1.3674E-03              TOTAL IN =       6.6098E-03

             OUT:                                     OUT:
             ----                                     ----
             BOUNDARIES =       9.2135E-14            BOUNDARIES =       6.4851E-13
          CONSTANT HEAD =           0.0000         CONSTANT HEAD =           0.0000
            ZONE CHANGE =       1.3517E-03           ZONE CHANGE =       6.6003E-03
       ZONE CHG TIP/TOE =       1.6341E-05      ZONE CHG TIP/TOE =       1.4731E-05
            ZONE MIXING =           0.0000           ZONE MIXING =           0.0000

              TOTAL OUT =       1.3680E-03             TOTAL OUT =       6.6150E-03

               IN - OUT =      -5.9011E-07              IN - OUT =      -5.2592E-06

    PERCENT DISCREPANCY =          -0.04     PERCENT DISCREPANCY =          -0.08


 HEAD WILL BE SAVED ON UNIT   51 AT END OF TIME STEP  117, STRESS PERIOD    1
1
  VOLUMETRIC BUDGET FOR ENTIRE MODEL AT END OF TIME STEP  117, STRESS PERIOD   1
  ------------------------------------------------------------------------------

     CUMULATIVE VOLUMES      L**3       RATES FOR THIS TIME STEP      L**3/T
     ------------------                 ------------------------

           IN:                                      IN:
           ---                                      ---
             STORAGE =       6.8661E-05               STORAGE =       1.7362E-05
       CONSTANT HEAD =       2.3273E-02         CONSTANT HEAD =           0.1641
               WELLS =           0.0000                 WELLS =           0.0000
          SWIADDTOCH =           0.0000            SWIADDTOCH =           0.0000

            TOTAL IN =       2.3342E-02              TOTAL IN =           0.1642

          OUT:                                     OUT:
          ----                                     ----
             STORAGE =       5.4003E-10               STORAGE =       4.0054E-09
       CONSTANT HEAD =           0.0000         CONSTANT HEAD =           0.0000
               WELLS =       2.3342E-02                 WELLS =           0.1642
          SWIADDTOCH =       5.6592E-10            SWIADDTOCH =           0.0000

           TOTAL OUT =       2.3342E-02             TOTAL OUT =           0.1642

            IN - OUT =      -1.3039E-08              IN - OUT =       2.9802E-08

 PERCENT DISCREPANCY =          -0.00     PERCENT DISCREPANCY =           0.00






         TIME SUMMARY AT END OF TIME STEP  117 IN STRESS PERIOD    1
                    SECONDS     MINUTES      HOURS       DAYS        YEARS
                    -----------------------------------------------------------
   TIME STEP LENGTH  105.00      1.7500     2.91667E-02 1.21528E-03 3.32726E-06
 STRESS PERIOD TIME  12285.      204.75      3.4125     0.14219     3.89289E-04
         TOTAL TIME  12285.      204.75      3.4125     0.14219     3.89289E-04
1

 SOLVING FOR HEAD 
     2 EXTERNAL ITERATIONS FOR TIME STEP 118 IN STRESS PERIOD    1

 MAXIMUM HEAD CHANGE FOR EACH ITERATION:

     HEAD CHANGE  LAY,ROW,COL      HEAD CHANGE  LAY,ROW,COL  
 ------------------------------------------------------------
    -1.950E-05 (  6,    1, 1000)  -2.185E-07 (  6,    1,  999)



 OUTPUT CONTROL FOR STRESS PERIOD    1   TIME STEP  118
    PRINT BUDGET
    SAVE HEAD FOR ALL LAYERS
 SOLVING FOR ZETA FOR LAYER     6 ZONE     2

     493 UPPER PART EQS.       498 LOWER PART EQS.    BAND WIDTH + 1 =    5
 STRESS PERIOD=  1 TIMESTEP=118 LAYER=  6 ZONE=  2 ACTIVE CELLS=  991 NUMBER OF EQUATIONS=     991
 UBUDSV SAVING "      ZETASRF  1" ON UNIT 55 AT TIME STEP118, STRESS PERIOD    1


                      VOLUMETRIC SWI ZONE BUDGET FOR ENTIRE MODEL
                     AT END OF TIME STEP  118 IN STRESS PERIOD   1
                                      ZONE     1
  -----------------------------------------------------------------------------------

        CUMULATIVE VOLUMES      L**3       RATES FOR THIS TIME STEP      L**3/T
        ------------------                 ------------------------

              IN:                                      IN:
              ---                                      ---
             BOUNDARIES =       2.3855E-08            BOUNDARIES =       1.6596E-07
          CONSTANT HEAD =       2.2150E-02         CONSTANT HEAD =           0.1580
            ZONE CHANGE =       1.4283E-03           ZONE CHANGE =       6.5473E-03
       ZONE CHG TIP/TOE =       1.8863E-05      ZONE CHG TIP/TOE =       2.6829E-05
            ZONE MIXING =           0.0000           ZONE MIXING =           0.0000

               TOTAL IN =       2.3597E-02              TOTAL IN =           0.1646

             OUT:                                     OUT:
             ----                                     ----
             BOUNDARIES =       2.3541E-02            BOUNDARIES =           0.1642
          CONSTANT HEAD =           0.0000         CONSTANT HEAD =           0.0000
            ZONE CHANGE =       5.5385E-05           ZONE CHANGE =       4.2196E-04
       ZONE CHG TIP/TOE =       2.6332E-07      ZONE CHG TIP/TOE =       2.0036E-06
            ZONE MIXING =           0.0000           ZONE MIXING =           0.0000

              TOTAL OUT =       2.3597E-02             TOTAL OUT =           0.1646

               IN - OUT =       6.4261E-07              IN - OUT =       4.7982E-06

    PERCENT DISCREPANCY =           0.00     PERCENT DISCREPANCY =           0.00



                      VOLUMETRIC SWI ZONE BUDGET FOR ENTIRE MODEL
                     AT END OF TIME STEP  118 IN STRESS PERIOD   1
                                      ZONE     2
  -----------------------------------------------------------------------------------

        CUMULATIVE VOLUMES      L**3       RATES FOR THIS TIME STEP      L**3/T
        ------------------                 ------------------------

              IN:                                      IN:
              ---                                      ---
             BOUNDARIES =       9.2873E-14            BOUNDARIES =       7.0273E-13
          CONSTANT HEAD =       1.3222E-03         CONSTANT HEAD =       6.1280E-03
            ZONE CHANGE =       5.2876E-05           ZONE CHANGE =       4.0600E-04
       ZONE CHG TIP/TOE =       2.6332E-07      ZONE CHG TIP/TOE =       2.0036E-06
            ZONE MIXING =           0.0000           ZONE MIXING =           0.0000

               TOTAL IN =       1.3754E-03              TOTAL IN =       6.5360E-03

             OUT:                                     OUT:
             ----                                     ----
             BOUNDARIES =       9.2892E-14            BOUNDARIES =       6.2309E-13
          CONSTANT HEAD =           0.0000         CONSTANT HEAD =           0.0000
            ZONE CHANGE =       1.3596E-03           ZONE CHANGE =       6.5297E-03
       ZONE CHG TIP/TOE =       1.6354E-05      ZONE CHG TIP/TOE =       1.0865E-05
            ZONE MIXING =           0.0000           ZONE MIXING =           0.0000

              TOTAL OUT =       1.3760E-03             TOTAL OUT =       6.5405E-03

               IN - OUT =      -5.9546E-07              IN - OUT =      -4.4825E-06

    PERCENT DISCREPANCY =          -0.04     PERCENT DISCREPANCY =          -0.07


 HEAD WILL BE SAVED ON UNIT   51 AT END OF TIME STEP  118, STRESS PERIOD    1
1
  VOLUMETRIC BUDGET FOR ENTIRE MODEL AT END OF TIME STEP  118, STRESS PERIOD   1
  ------------------------------------------------------------------------------

     CUMULATIVE VOLUMES      L**3       RATES FOR THIS TIME STEP      L**3/T
     ------------------                 ------------------------

           IN:                                      IN:
           ---                                      ---
             STORAGE =       6.8682E-05               STORAGE =       1.7320E-05
       CONSTANT HEAD =       2.3472E-02         CONSTANT HEAD =           0.1641
               WELLS =           0.0000                 WELLS =           0.0000
          SWIADDTOCH =           0.0000            SWIADDTOCH =           0.0000

            TOTAL IN =       2.3541E-02              TOTAL IN =           0.1642

          OUT:                                     OUT:
          ----                                     ----
             STORAGE =       5.4829E-10               STORAGE =       6.7964E-09
       CONSTANT HEAD =           0.0000         CONSTANT HEAD =           0.0000
               WELLS =       2.3541E-02                 WELLS =           0.1642
          SWIADDTOCH =       5.6592E-10            SWIADDTOCH =           0.0000

           TOTAL OUT =       2.3541E-02             TOTAL OUT =           0.1642

            IN - OUT =      -1.1176E-08              IN - OUT =       1.4901E-08

 PERCENT DISCREPANCY =          -0.00     PERCENT DISCREPANCY =           0.00






         TIME SUMMARY AT END OF TIME STEP  118 IN STRESS PERIOD    1
                    SECONDS     MINUTES      HOURS       DAYS        YEARS
                    -----------------------------------------------------------
   TIME STEP LENGTH  105.00      1.7500     2.91667E-02 1.21528E-03 3.32726E-06
 STRESS PERIOD TIME  12390.      206.50      3.4417     0.14340     3.92616E-04
         TOTAL TIME  12390.      206.50      3.4417     0.14340     3.92616E-04
1

 SOLVING FOR HEAD 
     2 EXTERNAL ITERATIONS FOR TIME STEP 119 IN STRESS PERIOD    1

 MAXIMUM HEAD CHANGE FOR EACH ITERATION:

     HEAD CHANGE  LAY,ROW,COL      HEAD CHANGE  LAY,ROW,COL  
 ------------------------------------------------------------
    -1.948E-05 (  6,    1, 1000)  -2.182E-07 (  6,    1, 1000)



 OUTPUT CONTROL FOR STRESS PERIOD    1   TIME STEP  119
    PRINT BUDGET
    SAVE HEAD FOR ALL LAYERS
 SOLVING FOR ZETA FOR LAYER     6 ZONE     2

     496 UPPER PART EQS.       494 LOWER PART EQS.    BAND WIDTH + 1 =    4
 STRESS PERIOD=  1 TIMESTEP=119 LAYER=  6 ZONE=  2 ACTIVE CELLS=  990 NUMBER OF EQUATIONS=     990
 UBUDSV SAVING "      ZETASRF  1" ON UNIT 55 AT TIME STEP119, STRESS PERIOD    1


                      VOLUMETRIC SWI ZONE BUDGET FOR ENTIRE MODEL
                     AT END OF TIME STEP  119 IN STRESS PERIOD   1
                                      ZONE     1
  -----------------------------------------------------------------------------------

        CUMULATIVE VOLUMES      L**3       RATES FOR THIS TIME STEP      L**3/T
        ------------------                 ------------------------

              IN:                                      IN:
              ---                                      ---
             BOUNDARIES =       2.4054E-08            BOUNDARIES =       1.6349E-07
          CONSTANT HEAD =       2.2342E-02         CONSTANT HEAD =           0.1581
            ZONE CHANGE =       1.4362E-03           ZONE CHANGE =       6.4544E-03
       ZONE CHG TIP/TOE =       1.8894E-05      ZONE CHG TIP/TOE =       2.5579E-05
            ZONE MIXING =           0.0000           ZONE MIXING =           0.0000

               TOTAL IN =       2.3797E-02              TOTAL IN =           0.1645

             OUT:                                     OUT:
             ----                                     ----
             BOUNDARIES =       2.3741E-02            BOUNDARIES =           0.1642
          CONSTANT HEAD =           0.0000         CONSTANT HEAD =           0.0000
            ZONE CHANGE =       5.5838E-05           ZONE CHANGE =       3.7295E-04
       ZONE CHG TIP/TOE =       2.6646E-07      ZONE CHG TIP/TOE =       2.5850E-06
            ZONE MIXING =           0.0000           ZONE MIXING =           0.0000

              TOTAL OUT =       2.3797E-02             TOTAL OUT =           0.1645

               IN - OUT =       6.4075E-07              IN - OUT =      -1.2815E-06

    PERCENT DISCREPANCY =           0.00     PERCENT DISCREPANCY =          -0.00



                      VOLUMETRIC SWI ZONE BUDGET FOR ENTIRE MODEL
                     AT END OF TIME STEP  119 IN STRESS PERIOD   1
                                      ZONE     2
  -----------------------------------------------------------------------------------

        CUMULATIVE VOLUMES      L**3       RATES FOR THIS TIME STEP      L**3/T
        ------------------                 ------------------------

              IN:                                      IN:
              ---                                      ---
             BOUNDARIES =       9.3658E-14            BOUNDARIES =       6.4540E-13
          CONSTANT HEAD =       1.3296E-03         CONSTANT HEAD =       6.0885E-03
            ZONE CHANGE =       5.3314E-05           ZONE CHANGE =       3.6056E-04
       ZONE CHG TIP/TOE =       2.6646E-07      ZONE CHG TIP/TOE =       2.5850E-06
            ZONE MIXING =           0.0000           ZONE MIXING =           0.0000

               TOTAL IN =       1.3832E-03              TOTAL IN =       6.4516E-03

             OUT:                                     OUT:
             ----                                     ----
             BOUNDARIES =       9.3722E-14            BOUNDARIES =       6.8249E-13
          CONSTANT HEAD =           0.0000         CONSTANT HEAD =           0.0000
            ZONE CHANGE =       1.3674E-03           ZONE CHANGE =       6.4368E-03
       ZONE CHG TIP/TOE =       1.6370E-05      ZONE CHG TIP/TOE =       1.3195E-05
            ZONE MIXING =           0.0000           ZONE MIXING =           0.0000

              TOTAL OUT =       1.3838E-03             TOTAL OUT =       6.4500E-03

               IN - OUT =      -5.9349E-07              IN - OUT =       1.6219E-06

    PERCENT DISCREPANCY =          -0.04     PERCENT DISCREPANCY =           0.03


 HEAD WILL BE SAVED ON UNIT   51 AT END OF TIME STEP  119, STRESS PERIOD    1
1
  VOLUMETRIC BUDGET FOR ENTIRE MODEL AT END OF TIME STEP  119, STRESS PERIOD   1
  ------------------------------------------------------------------------------

     CUMULATIVE VOLUMES      L**3       RATES FOR THIS TIME STEP      L**3/T
     ------------------                 ------------------------

           IN:                                      IN:
           ---                                      ---
             STORAGE =       6.8703E-05               STORAGE =       1.7263E-05
       CONSTANT HEAD =       2.3672E-02         CONSTANT HEAD =           0.1641
               WELLS =           0.0000                 WELLS =           0.0000
          SWIADDTOCH =           0.0000            SWIADDTOCH =           0.0000

            TOTAL IN =       2.3741E-02              TOTAL IN =           0.1642

          OUT:                                     OUT:
          ----                                     ----
             STORAGE =       5.5088E-10               STORAGE =       2.1364E-09
       CONSTANT HEAD =           0.0000         CONSTANT HEAD =           0.0000
               WELLS =       2.3741E-02                 WELLS =           0.1642
          SWIADDTOCH =       6.3097E-10            SWIADDTOCH =       5.3529E-08

           TOTAL OUT =       2.3741E-02             TOTAL OUT =           0.1642

            IN - OUT =      -1.1176E-08              IN - OUT =       2.9802E-08

 PERCENT DISCREPANCY =          -0.00     PERCENT DISCREPANCY =           0.00






         TIME SUMMARY AT END OF TIME STEP  119 IN STRESS PERIOD    1
                    SECONDS     MINUTES      HOURS       DAYS        YEARS
                    -----------------------------------------------------------
   TIME STEP LENGTH  105.00      1.7500     2.91667E-02 1.21528E-03 3.32726E-06
 STRESS PERIOD TIME  12495.      208.25      3.4708     0.14462     3.95943E-04
         TOTAL TIME  12495.      208.25      3.4708     0.14462     3.95943E-04
1

 SOLVING FOR HEAD 
     2 EXTERNAL ITERATIONS FOR TIME STEP 120 IN STRESS PERIOD    1

 MAXIMUM HEAD CHANGE FOR EACH ITERATION:

     HEAD CHANGE  LAY,ROW,COL      HEAD CHANGE  LAY,ROW,COL  
 ------------------------------------------------------------
    -1.947E-05 (  6,    1, 1000)  -2.178E-07 (  6,    1, 1000)



 OUTPUT CONTROL FOR STRESS PERIOD    1   TIME STEP  120
    PRINT BUDGET
    SAVE HEAD FOR ALL LAYERS
 SOLVING FOR ZETA FOR LAYER     6 ZONE     2

     495 UPPER PART EQS.       496 LOWER PART EQS.    BAND WIDTH + 1 =    3
 STRESS PERIOD=  1 TIMESTEP=120 LAYER=  6 ZONE=  2 ACTIVE CELLS=  991 NUMBER OF EQUATIONS=     991
 UBUDSV SAVING "      ZETASRF  1" ON UNIT 55 AT TIME STEP120, STRESS PERIOD    1


                      VOLUMETRIC SWI ZONE BUDGET FOR ENTIRE MODEL
                     AT END OF TIME STEP  120 IN STRESS PERIOD   1
                                      ZONE     1
  -----------------------------------------------------------------------------------

        CUMULATIVE VOLUMES      L**3       RATES FOR THIS TIME STEP      L**3/T
        ------------------                 ------------------------

              IN:                                      IN:
              ---                                      ---
             BOUNDARIES =       2.4265E-08            BOUNDARIES =       1.7369E-07
          CONSTANT HEAD =       2.2534E-02         CONSTANT HEAD =           0.1581
            ZONE CHANGE =       1.4440E-03           ZONE CHANGE =       6.3943E-03
       ZONE CHG TIP/TOE =       1.8927E-05      ZONE CHG TIP/TOE =       2.6534E-05
            ZONE MIXING =           0.0000           ZONE MIXING =           0.0000

               TOTAL IN =       2.3997E-02              TOTAL IN =           0.1645

             OUT:                                     OUT:
             ----                                     ----
             BOUNDARIES =       2.3940E-02            BOUNDARIES =           0.1642
          CONSTANT HEAD =           0.0000         CONSTANT HEAD =           0.0000
            ZONE CHANGE =       5.6266E-05           ZONE CHANGE =       3.5150E-04
       ZONE CHG TIP/TOE =       2.6842E-07      ZONE CHG TIP/TOE =       1.6151E-06
            ZONE MIXING =           0.0000           ZONE MIXING =           0.0000

              TOTAL OUT =       2.3997E-02             TOTAL OUT =           0.1645

               IN - OUT =       6.4261E-07              IN - OUT =       1.4007E-06

    PERCENT DISCREPANCY =           0.00     PERCENT DISCREPANCY =           0.00



                      VOLUMETRIC SWI ZONE BUDGET FOR ENTIRE MODEL
                     AT END OF TIME STEP  120 IN STRESS PERIOD   1
                                      ZONE     2
  -----------------------------------------------------------------------------------

        CUMULATIVE VOLUMES      L**3       RATES FOR THIS TIME STEP      L**3/T
        ------------------                 ------------------------

              IN:                                      IN:
              ---                                      ---
             BOUNDARIES =       9.4465E-14            BOUNDARIES =       6.6421E-13
          CONSTANT HEAD =       1.3370E-03         CONSTANT HEAD =       6.0491E-03
            ZONE CHANGE =       5.3726E-05           ZONE CHANGE =       3.3854E-04
       ZONE CHG TIP/TOE =       2.6842E-07      ZONE CHG TIP/TOE =       1.6151E-06
            ZONE MIXING =           0.0000           ZONE MIXING =           0.0000

               TOTAL IN =       1.3910E-03              TOTAL IN =       6.3893E-03

             OUT:                                     OUT:
             ----                                     ----
             BOUNDARIES =       9.4450E-14            BOUNDARIES =       5.9969E-13
          CONSTANT HEAD =           0.0000         CONSTANT HEAD =           0.0000
            ZONE CHANGE =       1.3752E-03           ZONE CHANGE =       6.3768E-03
       ZONE CHG TIP/TOE =       1.6387E-05      ZONE CHG TIP/TOE =       1.3571E-05
            ZONE MIXING =           0.0000           ZONE MIXING =           0.0000

              TOTAL OUT =       1.3916E-03             TOTAL OUT =       6.3903E-03

               IN - OUT =      -5.9477E-07              IN - OUT =      -1.0733E-06

    PERCENT DISCREPANCY =          -0.04     PERCENT DISCREPANCY =          -0.02


 HEAD WILL BE SAVED ON UNIT   51 AT END OF TIME STEP  120, STRESS PERIOD    1
1
  VOLUMETRIC BUDGET FOR ENTIRE MODEL AT END OF TIME STEP  120, STRESS PERIOD   1
  ------------------------------------------------------------------------------

     CUMULATIVE VOLUMES      L**3       RATES FOR THIS TIME STEP      L**3/T
     ------------------                 ------------------------

           IN:                                      IN:
           ---                                      ---
             STORAGE =       6.8724E-05               STORAGE =       1.7194E-05
       CONSTANT HEAD =       2.3871E-02         CONSTANT HEAD =           0.1641
               WELLS =           0.0000                 WELLS =           0.0000
          SWIADDTOCH =           0.0000            SWIADDTOCH =           0.0000

            TOTAL IN =       2.3940E-02              TOTAL IN =           0.1642

          OUT:                                     OUT:
          ----                                     ----
             STORAGE =       5.5348E-10               STORAGE =       2.1332E-09
       CONSTANT HEAD =           0.0000         CONSTANT HEAD =           0.0000
               WELLS =       2.3940E-02                 WELLS =           0.1642
          SWIADDTOCH =       6.3097E-10            SWIADDTOCH =           0.0000

           TOTAL OUT =       2.3940E-02             TOTAL OUT =           0.1642

            IN - OUT =      -1.1176E-08              IN - OUT =           0.0000

 PERCENT DISCREPANCY =          -0.00     PERCENT DISCREPANCY =           0.00






         TIME SUMMARY AT END OF TIME STEP  120 IN STRESS PERIOD    1
                    SECONDS     MINUTES      HOURS       DAYS        YEARS
                    -----------------------------------------------------------
   TIME STEP LENGTH  105.00      1.7500     2.91667E-02 1.21528E-03 3.32726E-06
 STRESS PERIOD TIME  12600.      210.00      3.5000     0.14583     3.99270E-04
         TOTAL TIME  12600.      210.00      3.5000     0.14583     3.99270E-04
1

 SOLVING FOR HEAD 
     2 EXTERNAL ITERATIONS FOR TIME STEP 121 IN STRESS PERIOD    1

 MAXIMUM HEAD CHANGE FOR EACH ITERATION:

     HEAD CHANGE  LAY,ROW,COL      HEAD CHANGE  LAY,ROW,COL  
 ------------------------------------------------------------
    -1.947E-05 (  6,    1, 1000)  -2.175E-07 (  6,    1, 1000)



 OUTPUT CONTROL FOR STRESS PERIOD    1   TIME STEP  121
    PRINT BUDGET
    SAVE HEAD FOR ALL LAYERS
 SOLVING FOR ZETA FOR LAYER     6 ZONE     2

     494 UPPER PART EQS.       495 LOWER PART EQS.    BAND WIDTH + 1 =    3
 STRESS PERIOD=  1 TIMESTEP=121 LAYER=  6 ZONE=  2 ACTIVE CELLS=  989 NUMBER OF EQUATIONS=     989
 UBUDSV SAVING "      ZETASRF  1" ON UNIT 55 AT TIME STEP121, STRESS PERIOD    1


                      VOLUMETRIC SWI ZONE BUDGET FOR ENTIRE MODEL
                     AT END OF TIME STEP  121 IN STRESS PERIOD   1
                                      ZONE     1
  -----------------------------------------------------------------------------------

        CUMULATIVE VOLUMES      L**3       RATES FOR THIS TIME STEP      L**3/T
        ------------------                 ------------------------

              IN:                                      IN:
              ---                                      ---
             BOUNDARIES =       2.4466E-08            BOUNDARIES =       1.6504E-07
          CONSTANT HEAD =       2.2727E-02         CONSTANT HEAD =           0.1581
            ZONE CHANGE =       1.4516E-03           ZONE CHANGE =       6.3258E-03
       ZONE CHG TIP/TOE =       1.8957E-05      ZONE CHG TIP/TOE =       2.4886E-05
            ZONE MIXING =           0.0000           ZONE MIXING =           0.0000

               TOTAL IN =       2.4197E-02              TOTAL IN =           0.1645

             OUT:                                     OUT:
             ----                                     ----
             BOUNDARIES =       2.4140E-02            BOUNDARIES =           0.1642
          CONSTANT HEAD =           0.0000         CONSTANT HEAD =           0.0000
            ZONE CHANGE =       5.6661E-05           ZONE CHANGE =       3.2502E-04
       ZONE CHG TIP/TOE =       2.7223E-07      ZONE CHG TIP/TOE =       3.1330E-06
            ZONE MIXING =           0.0000           ZONE MIXING =           0.0000

              TOTAL OUT =       2.4196E-02             TOTAL OUT =           0.1645

               IN - OUT =       6.3702E-07              IN - OUT =      -4.3809E-06

    PERCENT DISCREPANCY =           0.00     PERCENT DISCREPANCY =          -0.00



                      VOLUMETRIC SWI ZONE BUDGET FOR ENTIRE MODEL
                     AT END OF TIME STEP  121 IN STRESS PERIOD   1
                                      ZONE     2
  -----------------------------------------------------------------------------------

        CUMULATIVE VOLUMES      L**3       RATES FOR THIS TIME STEP      L**3/T
        ------------------                 ------------------------

              IN:                                      IN:
              ---                                      ---
             BOUNDARIES =       9.5219E-14            BOUNDARIES =       6.2030E-13
          CONSTANT HEAD =       1.3443E-03         CONSTANT HEAD =       6.0097E-03
            ZONE CHANGE =       5.4110E-05           ZONE CHANGE =       3.1606E-04
       ZONE CHG TIP/TOE =       2.7223E-07      ZONE CHG TIP/TOE =       3.1330E-06
            ZONE MIXING =           0.0000           ZONE MIXING =           0.0000

               TOTAL IN =       1.3987E-03              TOTAL IN =       6.3289E-03

             OUT:                                     OUT:
             ----                                     ----
             BOUNDARIES =       9.5183E-14            BOUNDARIES =       6.0247E-13
          CONSTANT HEAD =           0.0000         CONSTANT HEAD =           0.0000
            ZONE CHANGE =       1.3829E-03           ZONE CHANGE =       6.3083E-03
       ZONE CHG TIP/TOE =       1.6406E-05      ZONE CHG TIP/TOE =       1.5926E-05
            ZONE MIXING =           0.0000           ZONE MIXING =           0.0000

              TOTAL OUT =       1.3993E-03             TOTAL OUT =       6.3242E-03

               IN - OUT =      -5.8918E-07              IN - OUT =       4.6934E-06

    PERCENT DISCREPANCY =          -0.04     PERCENT DISCREPANCY =           0.07


 HEAD WILL BE SAVED ON UNIT   51 AT END OF TIME STEP  121, STRESS PERIOD    1
1
  VOLUMETRIC BUDGET FOR ENTIRE MODEL AT END OF TIME STEP  121, STRESS PERIOD   1
  ------------------------------------------------------------------------------

     CUMULATIVE VOLUMES      L**3       RATES FOR THIS TIME STEP      L**3/T
     ------------------                 ------------------------

           IN:                                      IN:
           ---                                      ---
             STORAGE =       6.8745E-05               STORAGE =       1.7194E-05
       CONSTANT HEAD =       2.4071E-02         CONSTANT HEAD =           0.1641
               WELLS =           0.0000                 WELLS =           0.0000
          SWIADDTOCH =           0.0000            SWIADDTOCH =           0.0000

            TOTAL IN =       2.4140E-02              TOTAL IN =           0.1642

          OUT:                                     OUT:
          ----                                     ----
             STORAGE =       5.5833E-10               STORAGE =       3.9922E-09
       CONSTANT HEAD =           0.0000         CONSTANT HEAD =           0.0000
               WELLS =       2.4140E-02                 WELLS =           0.1642
          SWIADDTOCH =       6.3097E-10            SWIADDTOCH =           0.0000

           TOTAL OUT =       2.4140E-02             TOTAL OUT =           0.1642

            IN - OUT =      -1.1176E-08              IN - OUT =       4.4703E-08

 PERCENT DISCREPANCY =          -0.00     PERCENT DISCREPANCY =           0.00






         TIME SUMMARY AT END OF TIME STEP  121 IN STRESS PERIOD    1
                    SECONDS     MINUTES      HOURS       DAYS        YEARS
                    -----------------------------------------------------------
   TIME STEP LENGTH  105.00      1.7500     2.91667E-02 1.21528E-03 3.32726E-06
 STRESS PERIOD TIME  12705.      211.75      3.5292     0.14705     4.02598E-04
         TOTAL TIME  12705.      211.75      3.5292     0.14705     4.02598E-04
1

 SOLVING FOR HEAD 
     2 EXTERNAL ITERATIONS FOR TIME STEP 122 IN STRESS PERIOD    1

 MAXIMUM HEAD CHANGE FOR EACH ITERATION:

     HEAD CHANGE  LAY,ROW,COL      HEAD CHANGE  LAY,ROW,COL  
 ------------------------------------------------------------
    -1.944E-05 (  6,    1, 1000)  -2.165E-07 (  6,    1, 1000)



 OUTPUT CONTROL FOR STRESS PERIOD    1   TIME STEP  122
    PRINT BUDGET
    SAVE HEAD FOR ALL LAYERS
 SOLVING FOR ZETA FOR LAYER     6 ZONE     2

     496 UPPER PART EQS.       495 LOWER PART EQS.    BAND WIDTH + 1 =    4
 STRESS PERIOD=  1 TIMESTEP=122 LAYER=  6 ZONE=  2 ACTIVE CELLS=  991 NUMBER OF EQUATIONS=     991
 UBUDSV SAVING "      ZETASRF  1" ON UNIT 55 AT TIME STEP122, STRESS PERIOD    1


                      VOLUMETRIC SWI ZONE BUDGET FOR ENTIRE MODEL
                     AT END OF TIME STEP  122 IN STRESS PERIOD   1
                                      ZONE     1
  -----------------------------------------------------------------------------------

        CUMULATIVE VOLUMES      L**3       RATES FOR THIS TIME STEP      L**3/T
        ------------------                 ------------------------

              IN:                                      IN:
              ---                                      ---
             BOUNDARIES =       2.4668E-08            BOUNDARIES =       1.6674E-07
          CONSTANT HEAD =       2.2919E-02         CONSTANT HEAD =           0.1582
            ZONE CHANGE =       1.4593E-03           ZONE CHANGE =       6.2769E-03
       ZONE CHG TIP/TOE =       1.8985E-05      ZONE CHG TIP/TOE =       2.2679E-05
            ZONE MIXING =           0.0000           ZONE MIXING =           0.0000

               TOTAL IN =       2.4397E-02              TOTAL IN =           0.1645

             OUT:                                     OUT:
             ----                                     ----
             BOUNDARIES =       2.4339E-02            BOUNDARIES =           0.1642
          CONSTANT HEAD =           0.0000         CONSTANT HEAD =           0.0000
            ZONE CHANGE =       5.7043E-05           ZONE CHANGE =       3.1440E-04
       ZONE CHG TIP/TOE =       2.7650E-07      ZONE CHG TIP/TOE =       3.5103E-06
            ZONE MIXING =           0.0000           ZONE MIXING =           0.0000

              TOTAL OUT =       2.4396E-02             TOTAL OUT =           0.1645

               IN - OUT =       6.2957E-07              IN - OUT =      -5.8860E-06

    PERCENT DISCREPANCY =           0.00     PERCENT DISCREPANCY =          -0.00



                      VOLUMETRIC SWI ZONE BUDGET FOR ENTIRE MODEL
                     AT END OF TIME STEP  122 IN STRESS PERIOD   1
                                      ZONE     2
  -----------------------------------------------------------------------------------

        CUMULATIVE VOLUMES      L**3       RATES FOR THIS TIME STEP      L**3/T
        ------------------                 ------------------------

              IN:                                      IN:
              ---                                      ---
             BOUNDARIES =       9.6021E-14            BOUNDARIES =       6.5972E-13
          CONSTANT HEAD =       1.3515E-03         CONSTANT HEAD =       5.9704E-03
            ZONE CHANGE =       5.4480E-05           ZONE CHANGE =       3.0514E-04
       ZONE CHG TIP/TOE =       2.7650E-07      ZONE CHG TIP/TOE =       3.5103E-06
            ZONE MIXING =           0.0000           ZONE MIXING =           0.0000

               TOTAL IN =       1.4063E-03              TOTAL IN =       6.2791E-03

             OUT:                                     OUT:
             ----                                     ----
             BOUNDARIES =       9.5987E-14            BOUNDARIES =       6.6203E-13
          CONSTANT HEAD =           0.0000         CONSTANT HEAD =           0.0000
            ZONE CHANGE =       1.3905E-03           ZONE CHANGE =       6.2595E-03
       ZONE CHG TIP/TOE =       1.6422E-05      ZONE CHG TIP/TOE =       1.3423E-05
            ZONE MIXING =           0.0000           ZONE MIXING =           0.0000

              TOTAL OUT =       1.4069E-03             TOTAL OUT =       6.2729E-03

               IN - OUT =      -5.8161E-07              IN - OUT =       6.2012E-06

    PERCENT DISCREPANCY =          -0.04     PERCENT DISCREPANCY =           0.10


 HEAD WILL BE SAVED ON UNIT   51 AT END OF TIME STEP  122, STRESS PERIOD    1
1
  VOLUMETRIC BUDGET FOR ENTIRE MODEL AT END OF TIME STEP  122, STRESS PERIOD   1
  ------------------------------------------------------------------------------

     CUMULATIVE VOLUMES      L**3       RATES FOR THIS TIME STEP      L**3/T
     ------------------                 ------------------------

           IN:                                      IN:
           ---                                      ---
             STORAGE =       6.8766E-05               STORAGE =       1.7088E-05
       CONSTANT HEAD =       2.4270E-02         CONSTANT HEAD =           0.1641
               WELLS =           0.0000                 WELLS =           0.0000
          SWIADDTOCH =           0.0000            SWIADDTOCH =           0.0000

            TOTAL IN =       2.4339E-02              TOTAL IN =           0.1642

          OUT:                                     OUT:
          ----                                     ----
             STORAGE =       5.6091E-10               STORAGE =       2.1273E-09
       CONSTANT HEAD =           0.0000         CONSTANT HEAD =           0.0000
               WELLS =       2.4339E-02                 WELLS =           0.1642
          SWIADDTOCH =       6.3097E-10            SWIADDTOCH =           0.0000

           TOTAL OUT =       2.4339E-02             TOTAL OUT =           0.1642

            IN - OUT =      -1.1176E-08              IN - OUT =       1.4901E-08

 PERCENT DISCREPANCY =          -0.00     PERCENT DISCREPANCY =           0.00






         TIME SUMMARY AT END OF TIME STEP  122 IN STRESS PERIOD    1
                    SECONDS     MINUTES      HOURS       DAYS        YEARS
                    -----------------------------------------------------------
   TIME STEP LENGTH  105.00      1.7500     2.91667E-02 1.21528E-03 3.32726E-06
 STRESS PERIOD TIME  12810.      213.50      3.5583     0.14826     4.05925E-04
         TOTAL TIME  12810.      213.50      3.5583     0.14826     4.05925E-04
1

 SOLVING FOR HEAD 
     2 EXTERNAL ITERATIONS FOR TIME STEP 123 IN STRESS PERIOD    1

 MAXIMUM HEAD CHANGE FOR EACH ITERATION:

     HEAD CHANGE  LAY,ROW,COL      HEAD CHANGE  LAY,ROW,COL  
 ------------------------------------------------------------
    -1.941E-05 (  6,    1, 1000)  -2.155E-07 (  6,    1,  999)



 OUTPUT CONTROL FOR STRESS PERIOD    1   TIME STEP  123
    PRINT BUDGET
    SAVE HEAD FOR ALL LAYERS
 SOLVING FOR ZETA FOR LAYER     6 ZONE     2

     495 UPPER PART EQS.       496 LOWER PART EQS.    BAND WIDTH + 1 =    3
 STRESS PERIOD=  1 TIMESTEP=123 LAYER=  6 ZONE=  2 ACTIVE CELLS=  991 NUMBER OF EQUATIONS=     991
 UBUDSV SAVING "      ZETASRF  1" ON UNIT 55 AT TIME STEP123, STRESS PERIOD    1


                      VOLUMETRIC SWI ZONE BUDGET FOR ENTIRE MODEL
                     AT END OF TIME STEP  123 IN STRESS PERIOD   1
                                      ZONE     1
  -----------------------------------------------------------------------------------

        CUMULATIVE VOLUMES      L**3       RATES FOR THIS TIME STEP      L**3/T
        ------------------                 ------------------------

              IN:                                      IN:
              ---                                      ---
             BOUNDARIES =       2.4874E-08            BOUNDARIES =       1.6961E-07
          CONSTANT HEAD =       2.3111E-02         CONSTANT HEAD =           0.1582
            ZONE CHANGE =       1.4668E-03           ZONE CHANGE =       6.1955E-03
       ZONE CHG TIP/TOE =       1.9009E-05      ZONE CHG TIP/TOE =       2.0468E-05
            ZONE MIXING =           0.0000           ZONE MIXING =           0.0000

               TOTAL IN =       2.4597E-02              TOTAL IN =           0.1644

             OUT:                                     OUT:
             ----                                     ----
             BOUNDARIES =       2.4539E-02            BOUNDARIES =           0.1642
          CONSTANT HEAD =           0.0000         CONSTANT HEAD =           0.0000
            ZONE CHANGE =       5.7369E-05           ZONE CHANGE =       2.6815E-04
       ZONE CHG TIP/TOE =       2.7925E-07      ZONE CHG TIP/TOE =       2.2638E-06
            ZONE MIXING =           0.0000           ZONE MIXING =           0.0000

              TOTAL OUT =       2.4596E-02             TOTAL OUT =           0.1644

               IN - OUT =       6.2771E-07              IN - OUT =      -2.5481E-06

    PERCENT DISCREPANCY =           0.00     PERCENT DISCREPANCY =          -0.00



                      VOLUMETRIC SWI ZONE BUDGET FOR ENTIRE MODEL
                     AT END OF TIME STEP  123 IN STRESS PERIOD   1
                                      ZONE     2
  -----------------------------------------------------------------------------------

        CUMULATIVE VOLUMES      L**3       RATES FOR THIS TIME STEP      L**3/T
        ------------------                 ------------------------

              IN:                                      IN:
              ---                                      ---
             BOUNDARIES =       9.6816E-14            BOUNDARIES =       6.5443E-13
          CONSTANT HEAD =       1.3588E-03         CONSTANT HEAD =       5.9311E-03
            ZONE CHANGE =       5.4793E-05           ZONE CHANGE =       2.5756E-04
       ZONE CHG TIP/TOE =       2.7925E-07      ZONE CHG TIP/TOE =       2.2638E-06
            ZONE MIXING =           0.0000           ZONE MIXING =           0.0000

               TOTAL IN =       1.4138E-03              TOTAL IN =       6.1909E-03

             OUT:                                     OUT:
             ----                                     ----
             BOUNDARIES =       9.6762E-14            BOUNDARIES =       6.3795E-13
          CONSTANT HEAD =           0.0000         CONSTANT HEAD =           0.0000
            ZONE CHANGE =       1.3980E-03           ZONE CHANGE =       6.1781E-03
       ZONE CHG TIP/TOE =       1.6434E-05      ZONE CHG TIP/TOE =       9.8876E-06
            ZONE MIXING =           0.0000           ZONE MIXING =           0.0000

              TOTAL OUT =       1.4144E-03             TOTAL OUT =       6.1880E-03

               IN - OUT =      -5.7800E-07              IN - OUT =       2.8689E-06

    PERCENT DISCREPANCY =          -0.04     PERCENT DISCREPANCY =           0.05


 HEAD WILL BE SAVED ON UNIT   51 AT END OF TIME STEP  123, STRESS PERIOD    1
1
  VOLUMETRIC BUDGET FOR ENTIRE MODEL AT END OF TIME STEP  123, STRESS PERIOD   1
  ------------------------------------------------------------------------------

     CUMULATIVE VOLUMES      L**3       RATES FOR THIS TIME STEP      L**3/T
     ------------------                 ------------------------

           IN:                                      IN:
           ---                                      ---
             STORAGE =       6.8786E-05               STORAGE =       1.7003E-05
       CONSTANT HEAD =       2.4470E-02         CONSTANT HEAD =           0.1641
               WELLS =           0.0000                 WELLS =           0.0000
          SWIADDTOCH =           0.0000            SWIADDTOCH =           0.0000

            TOTAL IN =       2.4539E-02              TOTAL IN =           0.1642

          OUT:                                     OUT:
          ----                                     ----
             STORAGE =       5.6576E-10               STORAGE =       3.9878E-09
       CONSTANT HEAD =           0.0000         CONSTANT HEAD =           0.0000
               WELLS =       2.4539E-02                 WELLS =           0.1642
          SWIADDTOCH =       6.3097E-10            SWIADDTOCH =           0.0000

           TOTAL OUT =       2.4539E-02             TOTAL OUT =           0.1642

            IN - OUT =      -1.1176E-08              IN - OUT =       1.4901E-08

 PERCENT DISCREPANCY =          -0.00     PERCENT DISCREPANCY =           0.00






         TIME SUMMARY AT END OF TIME STEP  123 IN STRESS PERIOD    1
                    SECONDS     MINUTES      HOURS       DAYS        YEARS
                    -----------------------------------------------------------
   TIME STEP LENGTH  105.00      1.7500     2.91667E-02 1.21528E-03 3.32726E-06
 STRESS PERIOD TIME  12915.      215.25      3.5875     0.14948     4.09252E-04
         TOTAL TIME  12915.      215.25      3.5875     0.14948     4.09252E-04
1

 SOLVING FOR HEAD 
     2 EXTERNAL ITERATIONS FOR TIME STEP 124 IN STRESS PERIOD    1

 MAXIMUM HEAD CHANGE FOR EACH ITERATION:

     HEAD CHANGE  LAY,ROW,COL      HEAD CHANGE  LAY,ROW,COL  
 ------------------------------------------------------------
    -1.941E-05 (  6,    1, 1000)  -2.154E-07 (  6,    1, 1000)



 OUTPUT CONTROL FOR STRESS PERIOD    1   TIME STEP  124
    PRINT BUDGET
    SAVE HEAD FOR ALL LAYERS
 SOLVING FOR ZETA FOR LAYER     6 ZONE     2

     494 UPPER PART EQS.       497 LOWER PART EQS.    BAND WIDTH + 1 =    3
 STRESS PERIOD=  1 TIMESTEP=124 LAYER=  6 ZONE=  2 ACTIVE CELLS=  991 NUMBER OF EQUATIONS=     991
 UBUDSV SAVING "      ZETASRF  1" ON UNIT 55 AT TIME STEP124, STRESS PERIOD    1


                      VOLUMETRIC SWI ZONE BUDGET FOR ENTIRE MODEL
                     AT END OF TIME STEP  124 IN STRESS PERIOD   1
                                      ZONE     1
  -----------------------------------------------------------------------------------

        CUMULATIVE VOLUMES      L**3       RATES FOR THIS TIME STEP      L**3/T
        ------------------                 ------------------------

              IN:                                      IN:
              ---                                      ---
             BOUNDARIES =       2.5063E-08            BOUNDARIES =       1.5508E-07
          CONSTANT HEAD =       2.3303E-02         CONSTANT HEAD =           0.1583
            ZONE CHANGE =       1.4742E-03           ZONE CHANGE =       6.1195E-03
       ZONE CHG TIP/TOE =       1.9035E-05      ZONE CHG TIP/TOE =       2.1420E-05
            ZONE MIXING =           0.0000           ZONE MIXING =           0.0000

               TOTAL IN =       2.4797E-02              TOTAL IN =           0.1644

             OUT:                                     OUT:
             ----                                     ----
             BOUNDARIES =       2.4738E-02            BOUNDARIES =           0.1642
          CONSTANT HEAD =           0.0000         CONSTANT HEAD =           0.0000
            ZONE CHANGE =       5.7648E-05           ZONE CHANGE =       2.3012E-04
       ZONE CHG TIP/TOE =       2.8171E-07      ZONE CHG TIP/TOE =       2.0229E-06
            ZONE MIXING =           0.0000           ZONE MIXING =           0.0000

              TOTAL OUT =       2.4796E-02             TOTAL OUT =           0.1644

               IN - OUT =       6.2585E-07              IN - OUT =       5.9605E-08

    PERCENT DISCREPANCY =           0.00     PERCENT DISCREPANCY =           0.00



                      VOLUMETRIC SWI ZONE BUDGET FOR ENTIRE MODEL
                     AT END OF TIME STEP  124 IN STRESS PERIOD   1
                                      ZONE     2
  -----------------------------------------------------------------------------------

        CUMULATIVE VOLUMES      L**3       RATES FOR THIS TIME STEP      L**3/T
        ------------------                 ------------------------

              IN:                                      IN:
              ---                                      ---
             BOUNDARIES =       9.7620E-14            BOUNDARIES =       6.6169E-13
          CONSTANT HEAD =       1.3659E-03         CONSTANT HEAD =       5.8917E-03
            ZONE CHANGE =       5.5056E-05           ZONE CHANGE =       2.1621E-04
       ZONE CHG TIP/TOE =       2.8171E-07      ZONE CHG TIP/TOE =       2.0229E-06
            ZONE MIXING =           0.0000           ZONE MIXING =           0.0000

               TOTAL IN =       1.4213E-03              TOTAL IN =       6.1100E-03

             OUT:                                     OUT:
             ----                                     ----
             BOUNDARIES =       9.7535E-14            BOUNDARIES =       6.3597E-13
          CONSTANT HEAD =           0.0000         CONSTANT HEAD =           0.0000
            ZONE CHANGE =       1.4054E-03           ZONE CHANGE =       6.1022E-03
       ZONE CHG TIP/TOE =       1.6443E-05      ZONE CHG TIP/TOE =       7.5127E-06
            ZONE MIXING =           0.0000           ZONE MIXING =           0.0000

              TOTAL OUT =       1.4218E-03             TOTAL OUT =       6.1097E-03

               IN - OUT =      -5.7777E-07              IN - OUT =       2.3935E-07

    PERCENT DISCREPANCY =          -0.04     PERCENT DISCREPANCY =           0.00


 HEAD WILL BE SAVED ON UNIT   51 AT END OF TIME STEP  124, STRESS PERIOD    1
1
  VOLUMETRIC BUDGET FOR ENTIRE MODEL AT END OF TIME STEP  124, STRESS PERIOD   1
  ------------------------------------------------------------------------------

     CUMULATIVE VOLUMES      L**3       RATES FOR THIS TIME STEP      L**3/T
     ------------------                 ------------------------

           IN:                                      IN:
           ---                                      ---
             STORAGE =       6.8807E-05               STORAGE =       1.6961E-05
       CONSTANT HEAD =       2.4669E-02         CONSTANT HEAD =           0.1641
               WELLS =           0.0000                 WELLS =           0.0000
          SWIADDTOCH =           0.0000            SWIADDTOCH =           0.0000

            TOTAL IN =       2.4738E-02              TOTAL IN =           0.1642

          OUT:                                     OUT:
          ----                                     ----
             STORAGE =       5.7173E-10               STORAGE =       4.9152E-09
       CONSTANT HEAD =           0.0000         CONSTANT HEAD =           0.0000
               WELLS =       2.4738E-02                 WELLS =           0.1642
          SWIADDTOCH =       6.3097E-10            SWIADDTOCH =           0.0000

           TOTAL OUT =       2.4738E-02             TOTAL OUT =           0.1642

            IN - OUT =      -9.3132E-09              IN - OUT =       2.9802E-08

 PERCENT DISCREPANCY =          -0.00     PERCENT DISCREPANCY =           0.00






         TIME SUMMARY AT END OF TIME STEP  124 IN STRESS PERIOD    1
                    SECONDS     MINUTES      HOURS       DAYS        YEARS
                    -----------------------------------------------------------
   TIME STEP LENGTH  105.00      1.7500     2.91667E-02 1.21528E-03 3.32726E-06
 STRESS PERIOD TIME  13020.      217.00      3.6167     0.15069     4.12579E-04
         TOTAL TIME  13020.      217.00      3.6167     0.15069     4.12579E-04
1

 SOLVING FOR HEAD 
     2 EXTERNAL ITERATIONS FOR TIME STEP 125 IN STRESS PERIOD    1

 MAXIMUM HEAD CHANGE FOR EACH ITERATION:

     HEAD CHANGE  LAY,ROW,COL      HEAD CHANGE  LAY,ROW,COL  
 ------------------------------------------------------------
    -1.939E-05 (  6,    1, 1000)  -2.146E-07 (  6,    1,  999)



 OUTPUT CONTROL FOR STRESS PERIOD    1   TIME STEP  125
    PRINT BUDGET
    SAVE HEAD FOR ALL LAYERS
 SOLVING FOR ZETA FOR LAYER     6 ZONE     2

     497 UPPER PART EQS.       495 LOWER PART EQS.    BAND WIDTH + 1 =    4
 STRESS PERIOD=  1 TIMESTEP=125 LAYER=  6 ZONE=  2 ACTIVE CELLS=  992 NUMBER OF EQUATIONS=     992
 UBUDSV SAVING "      ZETASRF  1" ON UNIT 55 AT TIME STEP125, STRESS PERIOD    1


                      VOLUMETRIC SWI ZONE BUDGET FOR ENTIRE MODEL
                     AT END OF TIME STEP  125 IN STRESS PERIOD   1
                                      ZONE     1
  -----------------------------------------------------------------------------------

        CUMULATIVE VOLUMES      L**3       RATES FOR THIS TIME STEP      L**3/T
        ------------------                 ------------------------

              IN:                                      IN:
              ---                                      ---
             BOUNDARIES =       2.5248E-08            BOUNDARIES =       1.5201E-07
          CONSTANT HEAD =       2.3496E-02         CONSTANT HEAD =           0.1583
            ZONE CHANGE =       1.4816E-03           ZONE CHANGE =       6.0320E-03
       ZONE CHG TIP/TOE =       1.9063E-05      ZONE CHG TIP/TOE =       2.2774E-05
            ZONE MIXING =           0.0000           ZONE MIXING =           0.0000

               TOTAL IN =       2.4996E-02              TOTAL IN =           0.1643

             OUT:                                     OUT:
             ----                                     ----
             BOUNDARIES =       2.4938E-02            BOUNDARIES =           0.1642
          CONSTANT HEAD =           0.0000         CONSTANT HEAD =           0.0000
            ZONE CHANGE =       5.7872E-05           ZONE CHANGE =       1.8405E-04
       ZONE CHG TIP/TOE =       2.8267E-07      ZONE CHG TIP/TOE =       7.9388E-07
            ZONE MIXING =           0.0000           ZONE MIXING =           0.0000

              TOTAL OUT =       2.4996E-02             TOTAL OUT =           0.1643

               IN - OUT =       6.2771E-07              IN - OUT =       7.5996E-07

    PERCENT DISCREPANCY =           0.00     PERCENT DISCREPANCY =           0.00



                      VOLUMETRIC SWI ZONE BUDGET FOR ENTIRE MODEL
                     AT END OF TIME STEP  125 IN STRESS PERIOD   1
                                      ZONE     2
  -----------------------------------------------------------------------------------

        CUMULATIVE VOLUMES      L**3       RATES FOR THIS TIME STEP      L**3/T
        ------------------                 ------------------------

              IN:                                      IN:
              ---                                      ---
             BOUNDARIES =       9.8400E-14            BOUNDARIES =       6.4210E-13
          CONSTANT HEAD =       1.3730E-03         CONSTANT HEAD =       5.8523E-03
            ZONE CHANGE =       5.5264E-05           ZONE CHANGE =       1.7056E-04
       ZONE CHG TIP/TOE =       2.8267E-07      ZONE CHG TIP/TOE =       7.9388E-07
            ZONE MIXING =           0.0000           ZONE MIXING =           0.0000

               TOTAL IN =       1.4286E-03              TOTAL IN =       6.0236E-03

             OUT:                                     OUT:
             ----                                     ----
             BOUNDARIES =       9.8343E-14            BOUNDARIES =       6.6448E-13
          CONSTANT HEAD =           0.0000         CONSTANT HEAD =           0.0000
            ZONE CHANGE =       1.4127E-03           ZONE CHANGE =       6.0148E-03
       ZONE CHG TIP/TOE =       1.6455E-05      ZONE CHG TIP/TOE =       9.2881E-06
            ZONE MIXING =           0.0000           ZONE MIXING =           0.0000

              TOTAL OUT =       1.4292E-03             TOTAL OUT =       6.0241E-03

               IN - OUT =      -5.7835E-07              IN - OUT =      -4.3167E-07

    PERCENT DISCREPANCY =          -0.04     PERCENT DISCREPANCY =          -0.01


 HEAD WILL BE SAVED ON UNIT   51 AT END OF TIME STEP  125, STRESS PERIOD    1
1
  VOLUMETRIC BUDGET FOR ENTIRE MODEL AT END OF TIME STEP  125, STRESS PERIOD   1
  ------------------------------------------------------------------------------

     CUMULATIVE VOLUMES      L**3       RATES FOR THIS TIME STEP      L**3/T
     ------------------                 ------------------------

           IN:                                      IN:
           ---                                      ---
             STORAGE =       6.8828E-05               STORAGE =       1.6896E-05
       CONSTANT HEAD =       2.4869E-02         CONSTANT HEAD =           0.1641
               WELLS =           0.0000                 WELLS =           0.0000
          SWIADDTOCH =           0.0000            SWIADDTOCH =           0.0000

            TOTAL IN =       2.4938E-02              TOTAL IN =           0.1642

          OUT:                                     OUT:
          ----                                     ----
             STORAGE =       5.7770E-10               STORAGE =       4.9127E-09
       CONSTANT HEAD =           0.0000         CONSTANT HEAD =           0.0000
               WELLS =       2.4938E-02                 WELLS =           0.1642
          SWIADDTOCH =       6.9869E-10            SWIADDTOCH =       5.5724E-08

           TOTAL OUT =       2.4938E-02             TOTAL OUT =           0.1642

            IN - OUT =      -9.3132E-09              IN - OUT =       2.9802E-08

 PERCENT DISCREPANCY =          -0.00     PERCENT DISCREPANCY =           0.00






         TIME SUMMARY AT END OF TIME STEP  125 IN STRESS PERIOD    1
                    SECONDS     MINUTES      HOURS       DAYS        YEARS
                    -----------------------------------------------------------
   TIME STEP LENGTH  105.00      1.7500     2.91667E-02 1.21528E-03 3.32726E-06
 STRESS PERIOD TIME  13125.      218.75      3.6458     0.15191     4.15907E-04
         TOTAL TIME  13125.      218.75      3.6458     0.15191     4.15907E-04
1

 SOLVING FOR HEAD 
     2 EXTERNAL ITERATIONS FOR TIME STEP 126 IN STRESS PERIOD    1

 MAXIMUM HEAD CHANGE FOR EACH ITERATION:

     HEAD CHANGE  LAY,ROW,COL      HEAD CHANGE  LAY,ROW,COL  
 ------------------------------------------------------------
    -1.939E-05 (  6,    1, 1000)  -2.138E-07 (  6,    1, 1000)



 OUTPUT CONTROL FOR STRESS PERIOD    1   TIME STEP  126
    PRINT BUDGET
    SAVE HEAD FOR ALL LAYERS
 SOLVING FOR ZETA FOR LAYER     6 ZONE     2

     495 UPPER PART EQS.       497 LOWER PART EQS.    BAND WIDTH + 1 =    3
 STRESS PERIOD=  1 TIMESTEP=126 LAYER=  6 ZONE=  2 ACTIVE CELLS=  992 NUMBER OF EQUATIONS=     992
 UBUDSV SAVING "      ZETASRF  1" ON UNIT 55 AT TIME STEP126, STRESS PERIOD    1


                      VOLUMETRIC SWI ZONE BUDGET FOR ENTIRE MODEL
                     AT END OF TIME STEP  126 IN STRESS PERIOD   1
                                      ZONE     1
  -----------------------------------------------------------------------------------

        CUMULATIVE VOLUMES      L**3       RATES FOR THIS TIME STEP      L**3/T
        ------------------                 ------------------------

              IN:                                      IN:
              ---                                      ---
             BOUNDARIES =       2.5446E-08            BOUNDARIES =       1.6282E-07
          CONSTANT HEAD =       2.3688E-02         CONSTANT HEAD =           0.1583
            ZONE CHANGE =       1.4888E-03           ZONE CHANGE =       5.9844E-03
       ZONE CHG TIP/TOE =       1.9086E-05      ZONE CHG TIP/TOE =       1.8831E-05
            ZONE MIXING =           0.0000           ZONE MIXING =           0.0000

               TOTAL IN =       2.5196E-02              TOTAL IN =           0.1643

             OUT:                                     OUT:
             ----                                     ----
             BOUNDARIES =       2.5137E-02            BOUNDARIES =           0.1642
          CONSTANT HEAD =           0.0000         CONSTANT HEAD =           0.0000
            ZONE CHANGE =       5.8086E-05           ZONE CHANGE =       1.7616E-04
       ZONE CHG TIP/TOE =       2.8442E-07      ZONE CHG TIP/TOE =       1.4420E-06
            ZONE MIXING =           0.0000           ZONE MIXING =           0.0000

              TOTAL OUT =       2.5195E-02             TOTAL OUT =           0.1643

               IN - OUT =       6.2212E-07              IN - OUT =      -4.0382E-06

    PERCENT DISCREPANCY =           0.00     PERCENT DISCREPANCY =          -0.00



                      VOLUMETRIC SWI ZONE BUDGET FOR ENTIRE MODEL
                     AT END OF TIME STEP  126 IN STRESS PERIOD   1
                                      ZONE     2
  -----------------------------------------------------------------------------------

        CUMULATIVE VOLUMES      L**3       RATES FOR THIS TIME STEP      L**3/T
        ------------------                 ------------------------

              IN:                                      IN:
              ---                                      ---
             BOUNDARIES =       9.9245E-14            BOUNDARIES =       6.9526E-13
          CONSTANT HEAD =       1.3801E-03         CONSTANT HEAD =       5.8128E-03
            ZONE CHANGE =       5.5466E-05           ZONE CHANGE =       1.6632E-04
       ZONE CHG TIP/TOE =       2.8442E-07      ZONE CHG TIP/TOE =       1.4420E-06
            ZONE MIXING =           0.0000           ZONE MIXING =           0.0000

               TOTAL IN =       1.4358E-03              TOTAL IN =       5.9806E-03

             OUT:                                     OUT:
             ----                                     ----
             BOUNDARIES =       9.9056E-14            BOUNDARIES =       5.8667E-13
          CONSTANT HEAD =           0.0000         CONSTANT HEAD =           0.0000
            ZONE CHANGE =       1.4200E-03           ZONE CHANGE =       5.9672E-03
       ZONE CHG TIP/TOE =       1.6466E-05      ZONE CHG TIP/TOE =       8.9846E-06
            ZONE MIXING =           0.0000           ZONE MIXING =           0.0000

              TOTAL OUT =       1.4364E-03             TOTAL OUT =       5.9762E-03

               IN - OUT =      -5.7300E-07              IN - OUT =       4.3376E-06

    PERCENT DISCREPANCY =          -0.04     PERCENT DISCREPANCY =           0.07


 HEAD WILL BE SAVED ON UNIT   51 AT END OF TIME STEP  126, STRESS PERIOD    1
1
  VOLUMETRIC BUDGET FOR ENTIRE MODEL AT END OF TIME STEP  126, STRESS PERIOD   1
  ------------------------------------------------------------------------------

     CUMULATIVE VOLUMES      L**3       RATES FOR THIS TIME STEP      L**3/T
     ------------------                 ------------------------

           IN:                                      IN:
           ---                                      ---
             STORAGE =       6.8848E-05               STORAGE =       1.6853E-05
       CONSTANT HEAD =       2.5068E-02         CONSTANT HEAD =           0.1641
               WELLS =           0.0000                 WELLS =           0.0000
          SWIADDTOCH =           0.0000            SWIADDTOCH =           0.0000

            TOTAL IN =       2.5137E-02              TOTAL IN =           0.1642

          OUT:                                     OUT:
          ----                                     ----
             STORAGE =       5.8254E-10               STORAGE =       3.9782E-09
       CONSTANT HEAD =           0.0000         CONSTANT HEAD =           0.0000
               WELLS =       2.5137E-02                 WELLS =           0.1642
          SWIADDTOCH =       6.9869E-10            SWIADDTOCH =           0.0000

           TOTAL OUT =       2.5137E-02             TOTAL OUT =           0.1642

            IN - OUT =      -9.3132E-09              IN - OUT =       4.4703E-08

 PERCENT DISCREPANCY =          -0.00     PERCENT DISCREPANCY =           0.00






         TIME SUMMARY AT END OF TIME STEP  126 IN STRESS PERIOD    1
                    SECONDS     MINUTES      HOURS       DAYS        YEARS
                    -----------------------------------------------------------
   TIME STEP LENGTH  105.00      1.7500     2.91667E-02 1.21528E-03 3.32726E-06
 STRESS PERIOD TIME  13230.      220.50      3.6750     0.15313     4.19234E-04
         TOTAL TIME  13230.      220.50      3.6750     0.15313     4.19234E-04
1

 SOLVING FOR HEAD 
     2 EXTERNAL ITERATIONS FOR TIME STEP 127 IN STRESS PERIOD    1

 MAXIMUM HEAD CHANGE FOR EACH ITERATION:

     HEAD CHANGE  LAY,ROW,COL      HEAD CHANGE  LAY,ROW,COL  
 ------------------------------------------------------------
    -1.937E-05 (  6,    1, 1000)  -2.132E-07 (  6,    1, 1000)



 OUTPUT CONTROL FOR STRESS PERIOD    1   TIME STEP  127
    PRINT BUDGET
    SAVE HEAD FOR ALL LAYERS
 SOLVING FOR ZETA FOR LAYER     6 ZONE     2

     494 UPPER PART EQS.       495 LOWER PART EQS.    BAND WIDTH + 1 =    3
 STRESS PERIOD=  1 TIMESTEP=127 LAYER=  6 ZONE=  2 ACTIVE CELLS=  989 NUMBER OF EQUATIONS=     989
 UBUDSV SAVING "      ZETASRF  1" ON UNIT 55 AT TIME STEP127, STRESS PERIOD    1


                      VOLUMETRIC SWI ZONE BUDGET FOR ENTIRE MODEL
                     AT END OF TIME STEP  127 IN STRESS PERIOD   1
                                      ZONE     1
  -----------------------------------------------------------------------------------

        CUMULATIVE VOLUMES      L**3       RATES FOR THIS TIME STEP      L**3/T
        ------------------                 ------------------------

              IN:                                      IN:
              ---                                      ---
             BOUNDARIES =       2.5661E-08            BOUNDARIES =       1.7700E-07
          CONSTANT HEAD =       2.3881E-02         CONSTANT HEAD =           0.1584
            ZONE CHANGE =       1.4961E-03           ZONE CHANGE =       5.9413E-03
       ZONE CHG TIP/TOE =       1.9102E-05      ZONE CHG TIP/TOE =       1.2960E-05
            ZONE MIXING =           0.0000           ZONE MIXING =           0.0000

               TOTAL IN =       2.5396E-02              TOTAL IN =           0.1643

             OUT:                                     OUT:
             ----                                     ----
             BOUNDARIES =       2.5337E-02            BOUNDARIES =           0.1642
          CONSTANT HEAD =           0.0000         CONSTANT HEAD =           0.0000
            ZONE CHANGE =       5.8298E-05           ZONE CHANGE =       1.7423E-04
       ZONE CHG TIP/TOE =       2.8740E-07      ZONE CHG TIP/TOE =       2.4471E-06
            ZONE MIXING =           0.0000           ZONE MIXING =           0.0000

              TOTAL OUT =       2.5395E-02             TOTAL OUT =           0.1643

               IN - OUT =       6.0908E-07              IN - OUT =      -1.2547E-05

    PERCENT DISCREPANCY =           0.00     PERCENT DISCREPANCY =          -0.01



                      VOLUMETRIC SWI ZONE BUDGET FOR ENTIRE MODEL
                     AT END OF TIME STEP  127 IN STRESS PERIOD   1
                                      ZONE     2
  -----------------------------------------------------------------------------------

        CUMULATIVE VOLUMES      L**3       RATES FOR THIS TIME STEP      L**3/T
        ------------------                 ------------------------

              IN:                                      IN:
              ---                                      ---
             BOUNDARIES =       1.0007E-13            BOUNDARIES =       6.7811E-13
          CONSTANT HEAD =       1.3871E-03         CONSTANT HEAD =       5.7735E-03
            ZONE CHANGE =       5.5671E-05           ZONE CHANGE =       1.6911E-04
       ZONE CHG TIP/TOE =       2.8740E-07      ZONE CHG TIP/TOE =       2.4471E-06
            ZONE MIXING =           0.0000           ZONE MIXING =           0.0000

               TOTAL IN =       1.4431E-03              TOTAL IN =       5.9450E-03

             OUT:                                     OUT:
             ----                                     ----
             BOUNDARIES =       9.9836E-14            BOUNDARIES =       6.4235E-13
          CONSTANT HEAD =           0.0000         CONSTANT HEAD =           0.0000
            ZONE CHANGE =       1.4272E-03           ZONE CHANGE =       5.9243E-03
       ZONE CHG TIP/TOE =       1.6475E-05      ZONE CHG TIP/TOE =       7.8439E-06
            ZONE MIXING =           0.0000           ZONE MIXING =           0.0000

              TOTAL OUT =       1.4436E-03             TOTAL OUT =       5.9321E-03

               IN - OUT =      -5.5728E-07              IN - OUT =       1.2891E-05

    PERCENT DISCREPANCY =          -0.04     PERCENT DISCREPANCY =           0.22


 HEAD WILL BE SAVED ON UNIT   51 AT END OF TIME STEP  127, STRESS PERIOD    1
1
  VOLUMETRIC BUDGET FOR ENTIRE MODEL AT END OF TIME STEP  127, STRESS PERIOD   1
  ------------------------------------------------------------------------------

     CUMULATIVE VOLUMES      L**3       RATES FOR THIS TIME STEP      L**3/T
     ------------------                 ------------------------

           IN:                                      IN:
           ---                                      ---
             STORAGE =       6.8868E-05               STORAGE =       1.6733E-05
       CONSTANT HEAD =       2.5268E-02         CONSTANT HEAD =           0.1641
               WELLS =           0.0000                 WELLS =           0.0000
          SWIADDTOCH =           0.0000            SWIADDTOCH =           0.0000

            TOTAL IN =       2.5337E-02              TOTAL IN =           0.1642

          OUT:                                     OUT:
          ----                                     ----
             STORAGE =       5.8737E-10               STORAGE =       3.9758E-09
       CONSTANT HEAD =           0.0000         CONSTANT HEAD =           0.0000
               WELLS =       2.5337E-02                 WELLS =           0.1642
          SWIADDTOCH =       6.9869E-10            SWIADDTOCH =           0.0000

           TOTAL OUT =       2.5337E-02             TOTAL OUT =           0.1642

            IN - OUT =      -1.1176E-08              IN - OUT =       1.4901E-08

 PERCENT DISCREPANCY =          -0.00     PERCENT DISCREPANCY =           0.00






         TIME SUMMARY AT END OF TIME STEP  127 IN STRESS PERIOD    1
                    SECONDS     MINUTES      HOURS       DAYS        YEARS
                    -----------------------------------------------------------
   TIME STEP LENGTH  105.00      1.7500     2.91667E-02 1.21528E-03 3.32726E-06
 STRESS PERIOD TIME  13335.      222.25      3.7042     0.15434     4.22561E-04
         TOTAL TIME  13335.      222.25      3.7042     0.15434     4.22561E-04
1

 SOLVING FOR HEAD 
     2 EXTERNAL ITERATIONS FOR TIME STEP 128 IN STRESS PERIOD    1

 MAXIMUM HEAD CHANGE FOR EACH ITERATION:

     HEAD CHANGE  LAY,ROW,COL      HEAD CHANGE  LAY,ROW,COL  
 ------------------------------------------------------------
    -1.937E-05 (  6,    1, 1000)  -2.126E-07 (  6,    1, 1000)



 OUTPUT CONTROL FOR STRESS PERIOD    1   TIME STEP  128
    PRINT BUDGET
    SAVE HEAD FOR ALL LAYERS
 SOLVING FOR ZETA FOR LAYER     6 ZONE     2

     497 UPPER PART EQS.       497 LOWER PART EQS.    BAND WIDTH + 1 =    3
 STRESS PERIOD=  1 TIMESTEP=128 LAYER=  6 ZONE=  2 ACTIVE CELLS=  994 NUMBER OF EQUATIONS=     994
 UBUDSV SAVING "      ZETASRF  1" ON UNIT 55 AT TIME STEP128, STRESS PERIOD    1


                      VOLUMETRIC SWI ZONE BUDGET FOR ENTIRE MODEL
                     AT END OF TIME STEP  128 IN STRESS PERIOD   1
                                      ZONE     1
  -----------------------------------------------------------------------------------

        CUMULATIVE VOLUMES      L**3       RATES FOR THIS TIME STEP      L**3/T
        ------------------                 ------------------------

              IN:                                      IN:
              ---                                      ---
             BOUNDARIES =       2.5868E-08            BOUNDARIES =       1.7100E-07
          CONSTANT HEAD =       2.4073E-02         CONSTANT HEAD =           0.1584
            ZONE CHANGE =       1.5032E-03           ZONE CHANGE =       5.9118E-03
       ZONE CHG TIP/TOE =       1.9110E-05      ZONE CHG TIP/TOE =       6.8173E-06
            ZONE MIXING =           0.0000           ZONE MIXING =           0.0000

               TOTAL IN =       2.5595E-02              TOTAL IN =           0.1643

             OUT:                                     OUT:
             ----                                     ----
             BOUNDARIES =       2.5536E-02            BOUNDARIES =           0.1642
          CONSTANT HEAD =           0.0000         CONSTANT HEAD =           0.0000
            ZONE CHANGE =       5.8505E-05           ZONE CHANGE =       1.7025E-04
       ZONE CHG TIP/TOE =       2.8924E-07      ZONE CHG TIP/TOE =       1.5199E-06
            ZONE MIXING =           0.0000           ZONE MIXING =           0.0000

              TOTAL OUT =       2.5595E-02             TOTAL OUT =           0.1643

               IN - OUT =       6.0536E-07              IN - OUT =      -4.3958E-06

    PERCENT DISCREPANCY =           0.00     PERCENT DISCREPANCY =          -0.00



                      VOLUMETRIC SWI ZONE BUDGET FOR ENTIRE MODEL
                     AT END OF TIME STEP  128 IN STRESS PERIOD   1
                                      ZONE     2
  -----------------------------------------------------------------------------------

        CUMULATIVE VOLUMES      L**3       RATES FOR THIS TIME STEP      L**3/T
        ------------------                 ------------------------

              IN:                                      IN:
              ---                                      ---
             BOUNDARIES =       1.0085E-13            BOUNDARIES =       6.4372E-13
          CONSTANT HEAD =       1.3941E-03         CONSTANT HEAD =       5.7346E-03
            ZONE CHANGE =       5.5872E-05           ZONE CHANGE =       1.6495E-04
       ZONE CHG TIP/TOE =       2.8924E-07      ZONE CHG TIP/TOE =       1.5199E-06
            ZONE MIXING =           0.0000           ZONE MIXING =           0.0000

               TOTAL IN =       1.4502E-03              TOTAL IN =       5.9010E-03

             OUT:                                     OUT:
             ----                                     ----
             BOUNDARIES =       1.0061E-13            BOUNDARIES =       6.3904E-13
          CONSTANT HEAD =           0.0000         CONSTANT HEAD =           0.0000
            ZONE CHANGE =       1.4343E-03           ZONE CHANGE =       5.8948E-03
       ZONE CHG TIP/TOE =       1.6477E-05      ZONE CHG TIP/TOE =       1.5189E-06
            ZONE MIXING =           0.0000           ZONE MIXING =           0.0000

              TOTAL OUT =       1.4508E-03             TOTAL OUT =       5.8963E-03

               IN - OUT =      -5.5158E-07              IN - OUT =       4.7241E-06

    PERCENT DISCREPANCY =          -0.04     PERCENT DISCREPANCY =           0.08


 HEAD WILL BE SAVED ON UNIT   51 AT END OF TIME STEP  128, STRESS PERIOD    1
1
  VOLUMETRIC BUDGET FOR ENTIRE MODEL AT END OF TIME STEP  128, STRESS PERIOD   1
  ------------------------------------------------------------------------------

     CUMULATIVE VOLUMES      L**3       RATES FOR THIS TIME STEP      L**3/T
     ------------------                 ------------------------

           IN:                                      IN:
           ---                                      ---
             STORAGE =       6.8889E-05               STORAGE =       1.6668E-05
       CONSTANT HEAD =       2.5467E-02         CONSTANT HEAD =           0.1641
               WELLS =           0.0000                 WELLS =           0.0000
          SWIADDTOCH =           0.0000            SWIADDTOCH =           0.0000

            TOTAL IN =       2.5536E-02              TOTAL IN =           0.1642

          OUT:                                     OUT:
          ----                                     ----
             STORAGE =       5.9446E-10               STORAGE =       5.8356E-09
       CONSTANT HEAD =           0.0000         CONSTANT HEAD =           0.0000
               WELLS =       2.5536E-02                 WELLS =           0.1642
          SWIADDTOCH =       6.9869E-10            SWIADDTOCH =           0.0000

           TOTAL OUT =       2.5536E-02             TOTAL OUT =           0.1642

            IN - OUT =      -1.1176E-08              IN - OUT =       1.4901E-08

 PERCENT DISCREPANCY =          -0.00     PERCENT DISCREPANCY =           0.00






         TIME SUMMARY AT END OF TIME STEP  128 IN STRESS PERIOD    1
                    SECONDS     MINUTES      HOURS       DAYS        YEARS
                    -----------------------------------------------------------
   TIME STEP LENGTH  105.00      1.7500     2.91667E-02 1.21528E-03 3.32726E-06
 STRESS PERIOD TIME  13440.      224.00      3.7333     0.15556     4.25888E-04
         TOTAL TIME  13440.      224.00      3.7333     0.15556     4.25888E-04
1

 SOLVING FOR HEAD 
     2 EXTERNAL ITERATIONS FOR TIME STEP 129 IN STRESS PERIOD    1

 MAXIMUM HEAD CHANGE FOR EACH ITERATION:

     HEAD CHANGE  LAY,ROW,COL      HEAD CHANGE  LAY,ROW,COL  
 ------------------------------------------------------------
    -1.942E-05 (  6,    1, 1000)  -2.136E-07 (  6,    1,  999)



 OUTPUT CONTROL FOR STRESS PERIOD    1   TIME STEP  129
    PRINT BUDGET
    SAVE HEAD FOR ALL LAYERS
 SOLVING FOR ZETA FOR LAYER     6 ZONE     2

     496 UPPER PART EQS.       497 LOWER PART EQS.    BAND WIDTH + 1 =    3
 STRESS PERIOD=  1 TIMESTEP=129 LAYER=  6 ZONE=  2 ACTIVE CELLS=  993 NUMBER OF EQUATIONS=     993
 UBUDSV SAVING "      ZETASRF  1" ON UNIT 55 AT TIME STEP129, STRESS PERIOD    1


                      VOLUMETRIC SWI ZONE BUDGET FOR ENTIRE MODEL
                     AT END OF TIME STEP  129 IN STRESS PERIOD   1
                                      ZONE     1
  -----------------------------------------------------------------------------------

        CUMULATIVE VOLUMES      L**3       RATES FOR THIS TIME STEP      L**3/T
        ------------------                 ------------------------

              IN:                                      IN:
              ---                                      ---
             BOUNDARIES =       2.6083E-08            BOUNDARIES =       1.7676E-07
          CONSTANT HEAD =       2.4266E-02         CONSTANT HEAD =           0.1584
            ZONE CHANGE =       1.5106E-03           ZONE CHANGE =       6.0080E-03
       ZONE CHG TIP/TOE =       1.9130E-05      ZONE CHG TIP/TOE =       1.6790E-05
            ZONE MIXING =           0.0000           ZONE MIXING =           0.0000

               TOTAL IN =       2.5795E-02              TOTAL IN =           0.1645

             OUT:                                     OUT:
             ----                                     ----
             BOUNDARIES =       2.5736E-02            BOUNDARIES =           0.1642
          CONSTANT HEAD =           0.0000         CONSTANT HEAD =           0.0000
            ZONE CHANGE =       5.8877E-05           ZONE CHANGE =       3.0682E-04
       ZONE CHG TIP/TOE =       2.9135E-07      ZONE CHG TIP/TOE =       1.7326E-06
            ZONE MIXING =           0.0000           ZONE MIXING =           0.0000

              TOTAL OUT =       2.5795E-02             TOTAL OUT =           0.1645

               IN - OUT =       6.0908E-07              IN - OUT =       3.5018E-06

    PERCENT DISCREPANCY =           0.00     PERCENT DISCREPANCY =           0.00



                      VOLUMETRIC SWI ZONE BUDGET FOR ENTIRE MODEL
                     AT END OF TIME STEP  129 IN STRESS PERIOD   1
                                      ZONE     2
  -----------------------------------------------------------------------------------

        CUMULATIVE VOLUMES      L**3       RATES FOR THIS TIME STEP      L**3/T
        ------------------                 ------------------------

              IN:                                      IN:
              ---                                      ---
             BOUNDARIES =       1.0163E-13            BOUNDARIES =       6.4200E-13
          CONSTANT HEAD =       1.4010E-03         CONSTANT HEAD =       5.6960E-03
            ZONE CHANGE =       5.6227E-05           ZONE CHANGE =       2.9215E-04
       ZONE CHG TIP/TOE =       2.9135E-07      ZONE CHG TIP/TOE =       1.7326E-06
            ZONE MIXING =           0.0000           ZONE MIXING =           0.0000

               TOTAL IN =       1.4575E-03              TOTAL IN =       5.9899E-03

             OUT:                                     OUT:
             ----                                     ----
             BOUNDARIES =       1.0139E-13            BOUNDARIES =       6.3775E-13
          CONSTANT HEAD =           0.0000         CONSTANT HEAD =           0.0000
            ZONE CHANGE =       1.4416E-03           ZONE CHANGE =       5.9910E-03
       ZONE CHG TIP/TOE =       1.6480E-05      ZONE CHG TIP/TOE =       2.1176E-06
            ZONE MIXING =           0.0000           ZONE MIXING =           0.0000

              TOTAL OUT =       1.4581E-03             TOTAL OUT =       5.9931E-03

               IN - OUT =      -5.5553E-07              IN - OUT =      -3.1600E-06

    PERCENT DISCREPANCY =          -0.04     PERCENT DISCREPANCY =          -0.05


 HEAD WILL BE SAVED ON UNIT   51 AT END OF TIME STEP  129, STRESS PERIOD    1
1
  VOLUMETRIC BUDGET FOR ENTIRE MODEL AT END OF TIME STEP  129, STRESS PERIOD   1
  ------------------------------------------------------------------------------

     CUMULATIVE VOLUMES      L**3       RATES FOR THIS TIME STEP      L**3/T
     ------------------                 ------------------------

           IN:                                      IN:
           ---                                      ---
             STORAGE =       6.8909E-05               STORAGE =       1.6696E-05
       CONSTANT HEAD =       2.5667E-02         CONSTANT HEAD =           0.1641
               WELLS =           0.0000                 WELLS =           0.0000
          SWIADDTOCH =           0.0000            SWIADDTOCH =           0.0000

            TOTAL IN =       2.5736E-02              TOTAL IN =           0.1642

          OUT:                                     OUT:
          ----                                     ----
             STORAGE =       5.9928E-10               STORAGE =       3.9682E-09
       CONSTANT HEAD =           0.0000         CONSTANT HEAD =           0.0000
               WELLS =       2.5736E-02                 WELLS =           0.1642
          SWIADDTOCH =       6.9869E-10            SWIADDTOCH =           0.0000

           TOTAL OUT =       2.5736E-02             TOTAL OUT =           0.1642

            IN - OUT =      -1.1176E-08              IN - OUT =           0.0000

 PERCENT DISCREPANCY =          -0.00     PERCENT DISCREPANCY =           0.00






         TIME SUMMARY AT END OF TIME STEP  129 IN STRESS PERIOD    1
                    SECONDS     MINUTES      HOURS       DAYS        YEARS
                    -----------------------------------------------------------
   TIME STEP LENGTH  105.00      1.7500     2.91667E-02 1.21528E-03 3.32726E-06
 STRESS PERIOD TIME  13545.      225.75      3.7625     0.15677     4.29216E-04
         TOTAL TIME  13545.      225.75      3.7625     0.15677     4.29216E-04
1

 SOLVING FOR HEAD 
     2 EXTERNAL ITERATIONS FOR TIME STEP 130 IN STRESS PERIOD    1

 MAXIMUM HEAD CHANGE FOR EACH ITERATION:

     HEAD CHANGE  LAY,ROW,COL      HEAD CHANGE  LAY,ROW,COL  
 ------------------------------------------------------------
    -1.928E-05 (  6,    1, 1000)  -2.096E-07 (  6,    1,  999)



 OUTPUT CONTROL FOR STRESS PERIOD    1   TIME STEP  130
    PRINT BUDGET
    SAVE HEAD FOR ALL LAYERS
 SOLVING FOR ZETA FOR LAYER     6 ZONE     2

     496 UPPER PART EQS.       495 LOWER PART EQS.    BAND WIDTH + 1 =    4
 STRESS PERIOD=  1 TIMESTEP=130 LAYER=  6 ZONE=  2 ACTIVE CELLS=  991 NUMBER OF EQUATIONS=     991
 UBUDSV SAVING "      ZETASRF  1" ON UNIT 55 AT TIME STEP130, STRESS PERIOD    1


                      VOLUMETRIC SWI ZONE BUDGET FOR ENTIRE MODEL
                     AT END OF TIME STEP  130 IN STRESS PERIOD   1
                                      ZONE     1
  -----------------------------------------------------------------------------------

        CUMULATIVE VOLUMES      L**3       RATES FOR THIS TIME STEP      L**3/T
        ------------------                 ------------------------

              IN:                                      IN:
              ---                                      ---
             BOUNDARIES =       2.6289E-08            BOUNDARIES =       1.6951E-07
          CONSTANT HEAD =       2.4458E-02         CONSTANT HEAD =           0.1585
            ZONE CHANGE =       1.5177E-03           ZONE CHANGE =       5.9124E-03
       ZONE CHG TIP/TOE =       1.9162E-05      ZONE CHG TIP/TOE =       2.5779E-05
            ZONE MIXING =           0.0000           ZONE MIXING =           0.0000

               TOTAL IN =       2.5995E-02              TOTAL IN =           0.1644

             OUT:                                     OUT:
             ----                                     ----
             BOUNDARIES =       2.5935E-02            BOUNDARIES =           0.1642
          CONSTANT HEAD =           0.0000         CONSTANT HEAD =           0.0000
            ZONE CHANGE =       5.9187E-05           ZONE CHANGE =       2.5466E-04
       ZONE CHG TIP/TOE =       2.9227E-07      ZONE CHG TIP/TOE =       7.6003E-07
            ZONE MIXING =           0.0000           ZONE MIXING =           0.0000

              TOTAL OUT =       2.5995E-02             TOTAL OUT =           0.1644

               IN - OUT =       6.1840E-07              IN - OUT =       9.7007E-06

    PERCENT DISCREPANCY =           0.00     PERCENT DISCREPANCY =           0.01



                      VOLUMETRIC SWI ZONE BUDGET FOR ENTIRE MODEL
                     AT END OF TIME STEP  130 IN STRESS PERIOD   1
                                      ZONE     2
  -----------------------------------------------------------------------------------

        CUMULATIVE VOLUMES      L**3       RATES FOR THIS TIME STEP      L**3/T
        ------------------                 ------------------------

              IN:                                      IN:
              ---                                      ---
             BOUNDARIES =       1.0239E-13            BOUNDARIES =       6.2725E-13
          CONSTANT HEAD =       1.4079E-03         CONSTANT HEAD =       5.6566E-03
            ZONE CHANGE =       5.6511E-05           ZONE CHANGE =       2.3380E-04
       ZONE CHG TIP/TOE =       2.9227E-07      ZONE CHG TIP/TOE =       7.6003E-07
            ZONE MIXING =           0.0000           ZONE MIXING =           0.0000

               TOTAL IN =       1.4647E-03              TOTAL IN =       5.8912E-03

             OUT:                                     OUT:
             ----                                     ----
             BOUNDARIES =       1.0222E-13            BOUNDARIES =       6.8614E-13
          CONSTANT HEAD =           0.0000         CONSTANT HEAD =           0.0000
            ZONE CHANGE =       1.4488E-03           ZONE CHANGE =       5.8957E-03
       ZONE CHG TIP/TOE =       1.6486E-05      ZONE CHG TIP/TOE =       4.9220E-06
            ZONE MIXING =           0.0000           ZONE MIXING =           0.0000

              TOTAL OUT =       1.4652E-03             TOTAL OUT =       5.9006E-03

               IN - OUT =      -5.6694E-07              IN - OUT =      -9.3882E-06

    PERCENT DISCREPANCY =          -0.04     PERCENT DISCREPANCY =          -0.16


 HEAD WILL BE SAVED ON UNIT   51 AT END OF TIME STEP  130, STRESS PERIOD    1
1
  VOLUMETRIC BUDGET FOR ENTIRE MODEL AT END OF TIME STEP  130, STRESS PERIOD   1
  ------------------------------------------------------------------------------

     CUMULATIVE VOLUMES      L**3       RATES FOR THIS TIME STEP      L**3/T
     ------------------                 ------------------------

           IN:                                      IN:
           ---                                      ---
             STORAGE =       6.8929E-05               STORAGE =       1.6488E-05
       CONSTANT HEAD =       2.5866E-02         CONSTANT HEAD =           0.1641
               WELLS =           0.0000                 WELLS =           0.0000
          SWIADDTOCH =           0.0000            SWIADDTOCH =           0.0000

            TOTAL IN =       2.5935E-02              TOTAL IN =           0.1642

          OUT:                                     OUT:
          ----                                     ----
             STORAGE =       6.0524E-10               STORAGE =       4.9032E-09
       CONSTANT HEAD =           0.0000         CONSTANT HEAD =           0.0000
               WELLS =       2.5935E-02                 WELLS =           0.1642
          SWIADDTOCH =       6.9869E-10            SWIADDTOCH =           0.0000

           TOTAL OUT =       2.5935E-02             TOTAL OUT =           0.1642

            IN - OUT =      -1.1176E-08              IN - OUT =       1.4901E-08

 PERCENT DISCREPANCY =          -0.00     PERCENT DISCREPANCY =           0.00






         TIME SUMMARY AT END OF TIME STEP  130 IN STRESS PERIOD    1
                    SECONDS     MINUTES      HOURS       DAYS        YEARS
                    -----------------------------------------------------------
   TIME STEP LENGTH  105.00      1.7500     2.91667E-02 1.21528E-03 3.32726E-06
 STRESS PERIOD TIME  13650.      227.50      3.7917     0.15799     4.32543E-04
         TOTAL TIME  13650.      227.50      3.7917     0.15799     4.32543E-04
1

 SOLVING FOR HEAD 
     2 EXTERNAL ITERATIONS FOR TIME STEP 131 IN STRESS PERIOD    1

 MAXIMUM HEAD CHANGE FOR EACH ITERATION:

     HEAD CHANGE  LAY,ROW,COL      HEAD CHANGE  LAY,ROW,COL  
 ------------------------------------------------------------
    -1.935E-05 (  6,    1, 1000)  -2.107E-07 (  6,    1,  999)



 OUTPUT CONTROL FOR STRESS PERIOD    1   TIME STEP  131
    PRINT BUDGET
    SAVE HEAD FOR ALL LAYERS
 SOLVING FOR ZETA FOR LAYER     6 ZONE     2

     495 UPPER PART EQS.       496 LOWER PART EQS.    BAND WIDTH + 1 =    3
 STRESS PERIOD=  1 TIMESTEP=131 LAYER=  6 ZONE=  2 ACTIVE CELLS=  991 NUMBER OF EQUATIONS=     991
 UBUDSV SAVING "      ZETASRF  1" ON UNIT 55 AT TIME STEP131, STRESS PERIOD    1


                      VOLUMETRIC SWI ZONE BUDGET FOR ENTIRE MODEL
                     AT END OF TIME STEP  131 IN STRESS PERIOD   1
                                      ZONE     1
  -----------------------------------------------------------------------------------

        CUMULATIVE VOLUMES      L**3       RATES FOR THIS TIME STEP      L**3/T
        ------------------                 ------------------------

              IN:                                      IN:
              ---                                      ---
             BOUNDARIES =       2.6496E-08            BOUNDARIES =       1.6972E-07
          CONSTANT HEAD =       2.4651E-02         CONSTANT HEAD =           0.1585
            ZONE CHANGE =       1.5248E-03           ZONE CHANGE =       5.7981E-03
       ZONE CHG TIP/TOE =       1.9195E-05      ZONE CHG TIP/TOE =       2.7694E-05
            ZONE MIXING =           0.0000           ZONE MIXING =           0.0000

               TOTAL IN =       2.6195E-02              TOTAL IN =           0.1644

             OUT:                                     OUT:
             ----                                     ----
             BOUNDARIES =       2.6135E-02            BOUNDARIES =           0.1642
          CONSTANT HEAD =           0.0000         CONSTANT HEAD =           0.0000
            ZONE CHANGE =       5.9409E-05           ZONE CHANGE =       1.8254E-04
       ZONE CHG TIP/TOE =       2.9294E-07      ZONE CHG TIP/TOE =       5.4660E-07
            ZONE MIXING =           0.0000           ZONE MIXING =           0.0000

              TOTAL OUT =       2.6194E-02             TOTAL OUT =           0.1643

               IN - OUT =       6.2957E-07              IN - OUT =       8.4937E-06

    PERCENT DISCREPANCY =           0.00     PERCENT DISCREPANCY =           0.01



                      VOLUMETRIC SWI ZONE BUDGET FOR ENTIRE MODEL
                     AT END OF TIME STEP  131 IN STRESS PERIOD   1
                                      ZONE     2
  -----------------------------------------------------------------------------------

        CUMULATIVE VOLUMES      L**3       RATES FOR THIS TIME STEP      L**3/T
        ------------------                 ------------------------

              IN:                                      IN:
              ---                                      ---
             BOUNDARIES =       1.0313E-13            BOUNDARIES =       6.0503E-13
          CONSTANT HEAD =       1.4147E-03         CONSTANT HEAD =       5.6178E-03
            ZONE CHANGE =       5.6709E-05           ZONE CHANGE =       1.6301E-04
       ZONE CHG TIP/TOE =       2.9294E-07      ZONE CHG TIP/TOE =       5.4660E-07
            ZONE MIXING =           0.0000           ZONE MIXING =           0.0000

               TOTAL IN =       1.4717E-03              TOTAL IN =       5.7813E-03

             OUT:                                     OUT:
             ----                                     ----
             BOUNDARIES =       1.0299E-13            BOUNDARIES =       6.3105E-13
          CONSTANT HEAD =           0.0000         CONSTANT HEAD =           0.0000
            ZONE CHANGE =       1.4558E-03           ZONE CHANGE =       5.7813E-03
       ZONE CHG TIP/TOE =       1.6495E-05      ZONE CHG TIP/TOE =       8.1684E-06
            ZONE MIXING =           0.0000           ZONE MIXING =           0.0000

              TOTAL OUT =       1.4723E-03             TOTAL OUT =       5.7895E-03

               IN - OUT =      -5.7684E-07              IN - OUT =      -8.1733E-06

    PERCENT DISCREPANCY =          -0.04     PERCENT DISCREPANCY =          -0.14


 HEAD WILL BE SAVED ON UNIT   51 AT END OF TIME STEP  131, STRESS PERIOD    1
1
  VOLUMETRIC BUDGET FOR ENTIRE MODEL AT END OF TIME STEP  131, STRESS PERIOD   1
  ------------------------------------------------------------------------------

     CUMULATIVE VOLUMES      L**3       RATES FOR THIS TIME STEP      L**3/T
     ------------------                 ------------------------

           IN:                                      IN:
           ---                                      ---
             STORAGE =       6.8949E-05               STORAGE =       1.6450E-05
       CONSTANT HEAD =       2.6066E-02         CONSTANT HEAD =           0.1641
               WELLS =           0.0000                 WELLS =           0.0000
          SWIADDTOCH =           0.0000            SWIADDTOCH =           0.0000

            TOTAL IN =       2.6135E-02              TOTAL IN =           0.1642

          OUT:                                     OUT:
          ----                                     ----
             STORAGE =       6.1119E-10               STORAGE =       4.8973E-09
       CONSTANT HEAD =           0.0000         CONSTANT HEAD =           0.0000
               WELLS =       2.6135E-02                 WELLS =           0.1642
          SWIADDTOCH =       6.9869E-10            SWIADDTOCH =           0.0000

           TOTAL OUT =       2.6135E-02             TOTAL OUT =           0.1642

            IN - OUT =      -1.1176E-08              IN - OUT =           0.0000

 PERCENT DISCREPANCY =          -0.00     PERCENT DISCREPANCY =           0.00






         TIME SUMMARY AT END OF TIME STEP  131 IN STRESS PERIOD    1
                    SECONDS     MINUTES      HOURS       DAYS        YEARS
                    -----------------------------------------------------------
   TIME STEP LENGTH  105.00      1.7500     2.91667E-02 1.21528E-03 3.32726E-06
 STRESS PERIOD TIME  13755.      229.25      3.8208     0.15920     4.35870E-04
         TOTAL TIME  13755.      229.25      3.8208     0.15920     4.35870E-04
1

 SOLVING FOR HEAD 
     2 EXTERNAL ITERATIONS FOR TIME STEP 132 IN STRESS PERIOD    1

 MAXIMUM HEAD CHANGE FOR EACH ITERATION:

     HEAD CHANGE  LAY,ROW,COL      HEAD CHANGE  LAY,ROW,COL  
 ------------------------------------------------------------
    -1.935E-05 (  6,    1, 1000)  -2.100E-07 (  6,    1,  999)



 OUTPUT CONTROL FOR STRESS PERIOD    1   TIME STEP  132
    PRINT BUDGET
    SAVE HEAD FOR ALL LAYERS
 SOLVING FOR ZETA FOR LAYER     6 ZONE     2

     494 UPPER PART EQS.       497 LOWER PART EQS.    BAND WIDTH + 1 =    3
 STRESS PERIOD=  1 TIMESTEP=132 LAYER=  6 ZONE=  2 ACTIVE CELLS=  991 NUMBER OF EQUATIONS=     991
 UBUDSV SAVING "      ZETASRF  1" ON UNIT 55 AT TIME STEP132, STRESS PERIOD    1


                      VOLUMETRIC SWI ZONE BUDGET FOR ENTIRE MODEL
                     AT END OF TIME STEP  132 IN STRESS PERIOD   1
                                      ZONE     1
  -----------------------------------------------------------------------------------

        CUMULATIVE VOLUMES      L**3       RATES FOR THIS TIME STEP      L**3/T
        ------------------                 ------------------------

              IN:                                      IN:
              ---                                      ---
             BOUNDARIES =       2.6690E-08            BOUNDARIES =       1.5966E-07
          CONSTANT HEAD =       2.4844E-02         CONSTANT HEAD =           0.1586
            ZONE CHANGE =       1.5317E-03           ZONE CHANGE =       5.7184E-03
       ZONE CHG TIP/TOE =       1.9223E-05      ZONE CHG TIP/TOE =       2.2504E-05
            ZONE MIXING =           0.0000           ZONE MIXING =           0.0000

               TOTAL IN =       2.6395E-02              TOTAL IN =           0.1643

             OUT:                                     OUT:
             ----                                     ----
             BOUNDARIES =       2.6334E-02            BOUNDARIES =           0.1642
          CONSTANT HEAD =           0.0000         CONSTANT HEAD =           0.0000
            ZONE CHANGE =       5.9572E-05           ZONE CHANGE =       1.3407E-04
       ZONE CHG TIP/TOE =       2.9295E-07      ZONE CHG TIP/TOE =       7.1681E-09
            ZONE MIXING =           0.0000           ZONE MIXING =           0.0000

              TOTAL OUT =       2.6394E-02             TOTAL OUT =           0.1643

               IN - OUT =       6.4448E-07              IN - OUT =       1.1578E-05

    PERCENT DISCREPANCY =           0.00     PERCENT DISCREPANCY =           0.01



                      VOLUMETRIC SWI ZONE BUDGET FOR ENTIRE MODEL
                     AT END OF TIME STEP  132 IN STRESS PERIOD   1
                                      ZONE     2
  -----------------------------------------------------------------------------------

        CUMULATIVE VOLUMES      L**3       RATES FOR THIS TIME STEP      L**3/T
        ------------------                 ------------------------

              IN:                                      IN:
              ---                                      ---
             BOUNDARIES =       1.0388E-13            BOUNDARIES =       6.2038E-13
          CONSTANT HEAD =       1.4215E-03         CONSTANT HEAD =       5.5789E-03
            ZONE CHANGE =       5.6853E-05           ZONE CHANGE =       1.1848E-04
       ZONE CHG TIP/TOE =       2.9295E-07      ZONE CHG TIP/TOE =       7.1681E-09
            ZONE MIXING =           0.0000           ZONE MIXING =           0.0000

               TOTAL IN =       1.4786E-03              TOTAL IN =       5.6974E-03

             OUT:                                     OUT:
             ----                                     ----
             BOUNDARIES =       1.0382E-13            BOUNDARIES =       6.8036E-13
          CONSTANT HEAD =           0.0000         CONSTANT HEAD =           0.0000
            ZONE CHANGE =       1.4627E-03           ZONE CHANGE =       5.7017E-03
       ZONE CHG TIP/TOE =       1.6504E-05      ZONE CHG TIP/TOE =       6.9178E-06
            ZONE MIXING =           0.0000           ZONE MIXING =           0.0000

              TOTAL OUT =       1.4792E-03             TOTAL OUT =       5.7086E-03

               IN - OUT =      -5.9046E-07              IN - OUT =      -1.1259E-05

    PERCENT DISCREPANCY =          -0.04     PERCENT DISCREPANCY =          -0.20


 HEAD WILL BE SAVED ON UNIT   51 AT END OF TIME STEP  132, STRESS PERIOD    1
1
  VOLUMETRIC BUDGET FOR ENTIRE MODEL AT END OF TIME STEP  132, STRESS PERIOD   1
  ------------------------------------------------------------------------------

     CUMULATIVE VOLUMES      L**3       RATES FOR THIS TIME STEP      L**3/T
     ------------------                 ------------------------

           IN:                                      IN:
           ---                                      ---
             STORAGE =       6.8969E-05               STORAGE =       1.6440E-05
       CONSTANT HEAD =       2.6265E-02         CONSTANT HEAD =           0.1641
               WELLS =           0.0000                 WELLS =           0.0000
          SWIADDTOCH =           0.0000            SWIADDTOCH =           0.0000

            TOTAL IN =       2.6334E-02              TOTAL IN =           0.1642

          OUT:                                     OUT:
          ----                                     ----
             STORAGE =       6.1601E-10               STORAGE =       3.9630E-09
       CONSTANT HEAD =           0.0000         CONSTANT HEAD =           0.0000
               WELLS =       2.6334E-02                 WELLS =           0.1642
          SWIADDTOCH =       6.9869E-10            SWIADDTOCH =           0.0000

           TOTAL OUT =       2.6334E-02             TOTAL OUT =           0.1642

            IN - OUT =      -1.3039E-08              IN - OUT =       4.4703E-08

 PERCENT DISCREPANCY =          -0.00     PERCENT DISCREPANCY =           0.00






         TIME SUMMARY AT END OF TIME STEP  132 IN STRESS PERIOD    1
                    SECONDS     MINUTES      HOURS       DAYS        YEARS
                    -----------------------------------------------------------
   TIME STEP LENGTH  105.00      1.7500     2.91667E-02 1.21528E-03 3.32726E-06
 STRESS PERIOD TIME  13860.      231.00      3.8500     0.16042     4.39197E-04
         TOTAL TIME  13860.      231.00      3.8500     0.16042     4.39197E-04
1

 SOLVING FOR HEAD 
     2 EXTERNAL ITERATIONS FOR TIME STEP 133 IN STRESS PERIOD    1

 MAXIMUM HEAD CHANGE FOR EACH ITERATION:

     HEAD CHANGE  LAY,ROW,COL      HEAD CHANGE  LAY,ROW,COL  
 ------------------------------------------------------------
    -1.934E-05 (  6,    1, 1000)  -2.092E-07 (  6,    1,  999)



 OUTPUT CONTROL FOR STRESS PERIOD    1   TIME STEP  133
    PRINT BUDGET
    SAVE HEAD FOR ALL LAYERS
 SOLVING FOR ZETA FOR LAYER     6 ZONE     2

     497 UPPER PART EQS.       497 LOWER PART EQS.    BAND WIDTH + 1 =    2
 STRESS PERIOD=  1 TIMESTEP=133 LAYER=  6 ZONE=  2 ACTIVE CELLS=  994 NUMBER OF EQUATIONS=     994
 UBUDSV SAVING "      ZETASRF  1" ON UNIT 55 AT TIME STEP133, STRESS PERIOD    1


                      VOLUMETRIC SWI ZONE BUDGET FOR ENTIRE MODEL
                     AT END OF TIME STEP  133 IN STRESS PERIOD   1
                                      ZONE     1
  -----------------------------------------------------------------------------------

        CUMULATIVE VOLUMES      L**3       RATES FOR THIS TIME STEP      L**3/T
        ------------------                 ------------------------

              IN:                                      IN:
              ---                                      ---
             BOUNDARIES =       2.6892E-08            BOUNDARIES =       1.6671E-07
          CONSTANT HEAD =       2.5036E-02         CONSTANT HEAD =           0.1586
            ZONE CHANGE =       1.5394E-03           ZONE CHANGE =       6.2844E-03
       ZONE CHG TIP/TOE =       1.9253E-05      ZONE CHG TIP/TOE =       2.4543E-05
            ZONE MIXING =           0.0000           ZONE MIXING =           0.0000

               TOTAL IN =       2.6595E-02              TOTAL IN =           0.1649

             OUT:                                     OUT:
             ----                                     ----
             BOUNDARIES =       2.6534E-02            BOUNDARIES =           0.1642
          CONSTANT HEAD =           0.0000         CONSTANT HEAD =           0.0000
            ZONE CHANGE =       6.0468E-05           ZONE CHANGE =       7.3752E-04
       ZONE CHG TIP/TOE =       2.9451E-07      ZONE CHG TIP/TOE =       1.2871E-06
            ZONE MIXING =           0.0000           ZONE MIXING =           0.0000

              TOTAL OUT =       2.6594E-02             TOTAL OUT =           0.1649

               IN - OUT =       6.6310E-07              IN - OUT =       1.3843E-05

    PERCENT DISCREPANCY =           0.00     PERCENT DISCREPANCY =           0.01



                      VOLUMETRIC SWI ZONE BUDGET FOR ENTIRE MODEL
                     AT END OF TIME STEP  133 IN STRESS PERIOD   1
                                      ZONE     2
  -----------------------------------------------------------------------------------

        CUMULATIVE VOLUMES      L**3       RATES FOR THIS TIME STEP      L**3/T
        ------------------                 ------------------------

              IN:                                      IN:
              ---                                      ---
             BOUNDARIES =       1.0472E-13            BOUNDARIES =       6.8960E-13
          CONSTANT HEAD =       1.4282E-03         CONSTANT HEAD =       5.5400E-03
            ZONE CHANGE =       5.7725E-05           ZONE CHANGE =       7.1777E-04
       ZONE CHG TIP/TOE =       2.9451E-07      ZONE CHG TIP/TOE =       1.2871E-06
            ZONE MIXING =           0.0000           ZONE MIXING =           0.0000

               TOTAL IN =       1.4862E-03              TOTAL IN =       6.2591E-03

             OUT:                                     OUT:
             ----                                     ----
             BOUNDARIES =       1.0456E-13            BOUNDARIES =       6.0977E-13
          CONSTANT HEAD =           0.0000         CONSTANT HEAD =           0.0000
            ZONE CHANGE =       1.4703E-03           ZONE CHANGE =       6.2678E-03
       ZONE CHG TIP/TOE =       1.6510E-05      ZONE CHG TIP/TOE =       4.7974E-06
            ZONE MIXING =           0.0000           ZONE MIXING =           0.0000

              TOTAL OUT =       1.4868E-03             TOTAL OUT =       6.2726E-03

               IN - OUT =      -6.0687E-07              IN - OUT =      -1.3528E-05

    PERCENT DISCREPANCY =          -0.04     PERCENT DISCREPANCY =          -0.22


 HEAD WILL BE SAVED ON UNIT   51 AT END OF TIME STEP  133, STRESS PERIOD    1
1
  VOLUMETRIC BUDGET FOR ENTIRE MODEL AT END OF TIME STEP  133, STRESS PERIOD   1
  ------------------------------------------------------------------------------

     CUMULATIVE VOLUMES      L**3       RATES FOR THIS TIME STEP      L**3/T
     ------------------                 ------------------------

           IN:                                      IN:
           ---                                      ---
             STORAGE =       6.8989E-05               STORAGE =       1.6332E-05
       CONSTANT HEAD =       2.6465E-02         CONSTANT HEAD =           0.1641
               WELLS =           0.0000                 WELLS =           0.0000
          SWIADDTOCH =           0.0000            SWIADDTOCH =           0.0000

            TOTAL IN =       2.6534E-02              TOTAL IN =           0.1642

          OUT:                                     OUT:
          ----                                     ----
             STORAGE =       6.1856E-10               STORAGE =       2.0984E-09
       CONSTANT HEAD =           0.0000         CONSTANT HEAD =           0.0000
               WELLS =       2.6534E-02                 WELLS =           0.1642
          SWIADDTOCH =       7.7006E-10            SWIADDTOCH =       5.8721E-08

           TOTAL OUT =       2.6534E-02             TOTAL OUT =           0.1642

            IN - OUT =      -1.3039E-08              IN - OUT =       1.4901E-08

 PERCENT DISCREPANCY =          -0.00     PERCENT DISCREPANCY =           0.00






         TIME SUMMARY AT END OF TIME STEP  133 IN STRESS PERIOD    1
                    SECONDS     MINUTES      HOURS       DAYS        YEARS
                    -----------------------------------------------------------
   TIME STEP LENGTH  105.00      1.7500     2.91667E-02 1.21528E-03 3.32726E-06
 STRESS PERIOD TIME  13965.      232.75      3.8792     0.16163     4.42525E-04
         TOTAL TIME  13965.      232.75      3.8792     0.16163     4.42525E-04
1

 SOLVING FOR HEAD 
     2 EXTERNAL ITERATIONS FOR TIME STEP 134 IN STRESS PERIOD    1

 MAXIMUM HEAD CHANGE FOR EACH ITERATION:

     HEAD CHANGE  LAY,ROW,COL      HEAD CHANGE  LAY,ROW,COL  
 ------------------------------------------------------------
    -1.934E-05 (  6,    1, 1000)  -2.088E-07 (  6,    1, 1000)



 OUTPUT CONTROL FOR STRESS PERIOD    1   TIME STEP  134
    PRINT BUDGET
    SAVE HEAD FOR ALL LAYERS
 SOLVING FOR ZETA FOR LAYER     6 ZONE     2

     494 UPPER PART EQS.       495 LOWER PART EQS.    BAND WIDTH + 1 =    3
 STRESS PERIOD=  1 TIMESTEP=134 LAYER=  6 ZONE=  2 ACTIVE CELLS=  989 NUMBER OF EQUATIONS=     989
 UBUDSV SAVING "      ZETASRF  1" ON UNIT 55 AT TIME STEP134, STRESS PERIOD    1


                      VOLUMETRIC SWI ZONE BUDGET FOR ENTIRE MODEL
                     AT END OF TIME STEP  134 IN STRESS PERIOD   1
                                      ZONE     1
  -----------------------------------------------------------------------------------

        CUMULATIVE VOLUMES      L**3       RATES FOR THIS TIME STEP      L**3/T
        ------------------                 ------------------------

              IN:                                      IN:
              ---                                      ---
             BOUNDARIES =       2.7094E-08            BOUNDARIES =       1.6639E-07
          CONSTANT HEAD =       2.5229E-02         CONSTANT HEAD =           0.1586
            ZONE CHANGE =       1.5470E-03           ZONE CHANGE =       6.2638E-03
       ZONE CHG TIP/TOE =       1.9286E-05      ZONE CHG TIP/TOE =       2.7661E-05
            ZONE MIXING =           0.0000           ZONE MIXING =           0.0000

               TOTAL IN =       2.6795E-02              TOTAL IN =           0.1649

             OUT:                                     OUT:
             ----                                     ----
             BOUNDARIES =       2.6733E-02            BOUNDARIES =           0.1642
          CONSTANT HEAD =           0.0000         CONSTANT HEAD =           0.0000
            ZONE CHANGE =       6.1392E-05           ZONE CHANGE =       7.6003E-04
       ZONE CHG TIP/TOE =       2.9511E-07      ZONE CHG TIP/TOE =       4.8925E-07
            ZONE MIXING =           0.0000           ZONE MIXING =           0.0000

              TOTAL OUT =       2.6795E-02             TOTAL OUT =           0.1649

               IN - OUT =       6.7800E-07              IN - OUT =       1.1772E-05

    PERCENT DISCREPANCY =           0.00     PERCENT DISCREPANCY =           0.01



                      VOLUMETRIC SWI ZONE BUDGET FOR ENTIRE MODEL
                     AT END OF TIME STEP  134 IN STRESS PERIOD   1
                                      ZONE     2
  -----------------------------------------------------------------------------------

        CUMULATIVE VOLUMES      L**3       RATES FOR THIS TIME STEP      L**3/T
        ------------------                 ------------------------

              IN:                                      IN:
              ---                                      ---
             BOUNDARIES =       1.0556E-13            BOUNDARIES =       6.8696E-13
          CONSTANT HEAD =       1.4349E-03         CONSTANT HEAD =       5.5029E-03
            ZONE CHANGE =       5.8628E-05           ZONE CHANGE =       7.4268E-04
       ZONE CHG TIP/TOE =       2.9511E-07      ZONE CHG TIP/TOE =       4.8925E-07
            ZONE MIXING =           0.0000           ZONE MIXING =           0.0000

               TOTAL IN =       1.4938E-03              TOTAL IN =       6.2460E-03

             OUT:                                     OUT:
             ----                                     ----
             BOUNDARIES =       1.0530E-13            BOUNDARIES =       6.1201E-13
          CONSTANT HEAD =           0.0000         CONSTANT HEAD =           0.0000
            ZONE CHANGE =       1.4779E-03           ZONE CHANGE =       6.2472E-03
       ZONE CHG TIP/TOE =       1.6522E-05      ZONE CHG TIP/TOE =       1.0308E-05
            ZONE MIXING =           0.0000           ZONE MIXING =           0.0000

              TOTAL OUT =       1.4944E-03             TOTAL OUT =       6.2575E-03

               IN - OUT =      -6.2084E-07              IN - OUT =      -1.1437E-05

    PERCENT DISCREPANCY =          -0.04     PERCENT DISCREPANCY =          -0.18


 HEAD WILL BE SAVED ON UNIT   51 AT END OF TIME STEP  134, STRESS PERIOD    1
1
  VOLUMETRIC BUDGET FOR ENTIRE MODEL AT END OF TIME STEP  134, STRESS PERIOD   1
  ------------------------------------------------------------------------------

     CUMULATIVE VOLUMES      L**3       RATES FOR THIS TIME STEP      L**3/T
     ------------------                 ------------------------

           IN:                                      IN:
           ---                                      ---
             STORAGE =       6.9009E-05               STORAGE =       1.6271E-05
       CONSTANT HEAD =       2.6664E-02         CONSTANT HEAD =           0.1641
               WELLS =           0.0000                 WELLS =           0.0000
          SWIADDTOCH =           0.0000            SWIADDTOCH =           0.0000

            TOTAL IN =       2.6733E-02              TOTAL IN =           0.1642

          OUT:                                     OUT:
          ----                                     ----
             STORAGE =       6.2451E-10               STORAGE =       4.8967E-09
       CONSTANT HEAD =           0.0000         CONSTANT HEAD =           0.0000
               WELLS =       2.6733E-02                 WELLS =           0.1642
          SWIADDTOCH =       7.7006E-10            SWIADDTOCH =           0.0000

           TOTAL OUT =       2.6733E-02             TOTAL OUT =           0.1642

            IN - OUT =      -1.3039E-08              IN - OUT =       2.9802E-08

 PERCENT DISCREPANCY =          -0.00     PERCENT DISCREPANCY =           0.00






         TIME SUMMARY AT END OF TIME STEP  134 IN STRESS PERIOD    1
                    SECONDS     MINUTES      HOURS       DAYS        YEARS
                    -----------------------------------------------------------
   TIME STEP LENGTH  105.00      1.7500     2.91667E-02 1.21528E-03 3.32726E-06
 STRESS PERIOD TIME  14070.      234.50      3.9083     0.16285     4.45852E-04
         TOTAL TIME  14070.      234.50      3.9083     0.16285     4.45852E-04
1

 SOLVING FOR HEAD 
     2 EXTERNAL ITERATIONS FOR TIME STEP 135 IN STRESS PERIOD    1

 MAXIMUM HEAD CHANGE FOR EACH ITERATION:

     HEAD CHANGE  LAY,ROW,COL      HEAD CHANGE  LAY,ROW,COL  
 ------------------------------------------------------------
    -1.934E-05 (  6,    1, 1000)  -2.085E-07 (  6,    1, 1000)



 OUTPUT CONTROL FOR STRESS PERIOD    1   TIME STEP  135
    PRINT BUDGET
    SAVE HEAD FOR ALL LAYERS
 SOLVING FOR ZETA FOR LAYER     6 ZONE     2

     494 UPPER PART EQS.       497 LOWER PART EQS.    BAND WIDTH + 1 =    4
 STRESS PERIOD=  1 TIMESTEP=135 LAYER=  6 ZONE=  2 ACTIVE CELLS=  991 NUMBER OF EQUATIONS=     991
 UBUDSV SAVING "      ZETASRF  1" ON UNIT 55 AT TIME STEP135, STRESS PERIOD    1


                      VOLUMETRIC SWI ZONE BUDGET FOR ENTIRE MODEL
                     AT END OF TIME STEP  135 IN STRESS PERIOD   1
                                      ZONE     1
  -----------------------------------------------------------------------------------

        CUMULATIVE VOLUMES      L**3       RATES FOR THIS TIME STEP      L**3/T
        ------------------                 ------------------------

              IN:                                      IN:
              ---                                      ---
             BOUNDARIES =       2.7299E-08            BOUNDARIES =       1.6827E-07
          CONSTANT HEAD =       2.5422E-02         CONSTANT HEAD =           0.1587
            ZONE CHANGE =       1.5543E-03           ZONE CHANGE =       6.0387E-03
       ZONE CHG TIP/TOE =       1.9321E-05      ZONE CHG TIP/TOE =       2.8871E-05
            ZONE MIXING =           0.0000           ZONE MIXING =           0.0000

               TOTAL IN =       2.6996E-02              TOTAL IN =           0.1647

             OUT:                                     OUT:
             ----                                     ----
             BOUNDARIES =       2.6933E-02            BOUNDARIES =           0.1642
          CONSTANT HEAD =           0.0000         CONSTANT HEAD =           0.0000
            ZONE CHANGE =       6.2084E-05           ZONE CHANGE =       5.6978E-04
       ZONE CHG TIP/TOE =       2.9835E-07      ZONE CHG TIP/TOE =       2.6717E-06
            ZONE MIXING =           0.0000           ZONE MIXING =           0.0000

              TOTAL OUT =       2.6995E-02             TOTAL OUT =           0.1647

               IN - OUT =       6.9104E-07              IN - OUT =       1.1310E-05

    PERCENT DISCREPANCY =           0.00     PERCENT DISCREPANCY =           0.01



                      VOLUMETRIC SWI ZONE BUDGET FOR ENTIRE MODEL
                     AT END OF TIME STEP  135 IN STRESS PERIOD   1
                                      ZONE     2
  -----------------------------------------------------------------------------------

        CUMULATIVE VOLUMES      L**3       RATES FOR THIS TIME STEP      L**3/T
        ------------------                 ------------------------

              IN:                                      IN:
              ---                                      ---
             BOUNDARIES =       1.0635E-13            BOUNDARIES =       6.4964E-13
          CONSTANT HEAD =       1.4415E-03         CONSTANT HEAD =       5.4676E-03
            ZONE CHANGE =       5.9296E-05           ZONE CHANGE =       5.4978E-04
       ZONE CHG TIP/TOE =       2.9835E-07      ZONE CHG TIP/TOE =       2.6717E-06
            ZONE MIXING =           0.0000           ZONE MIXING =           0.0000

               TOTAL IN =       1.5011E-03              TOTAL IN =       6.0200E-03

             OUT:                                     OUT:
             ----                                     ----
             BOUNDARIES =       1.0607E-13            BOUNDARIES =       6.3175E-13
          CONSTANT HEAD =           0.0000         CONSTANT HEAD =           0.0000
            ZONE CHANGE =       1.4852E-03           ZONE CHANGE =       6.0221E-03
       ZONE CHG TIP/TOE =       1.6533E-05      ZONE CHG TIP/TOE =       8.8768E-06
            ZONE MIXING =           0.0000           ZONE MIXING =           0.0000

              TOTAL OUT =       1.5018E-03             TOTAL OUT =       6.0310E-03

               IN - OUT =      -6.3423E-07              IN - OUT =      -1.0984E-05

    PERCENT DISCREPANCY =          -0.04     PERCENT DISCREPANCY =          -0.18


 HEAD WILL BE SAVED ON UNIT   51 AT END OF TIME STEP  135, STRESS PERIOD    1
1
  VOLUMETRIC BUDGET FOR ENTIRE MODEL AT END OF TIME STEP  135, STRESS PERIOD   1
  ------------------------------------------------------------------------------

     CUMULATIVE VOLUMES      L**3       RATES FOR THIS TIME STEP      L**3/T
     ------------------                 ------------------------

           IN:                                      IN:
           ---                                      ---
             STORAGE =       6.9028E-05               STORAGE =       1.6245E-05
       CONSTANT HEAD =       2.6864E-02         CONSTANT HEAD =           0.1641
               WELLS =           0.0000                 WELLS =           0.0000
          SWIADDTOCH =           0.0000            SWIADDTOCH =           0.0000

            TOTAL IN =       2.6933E-02              TOTAL IN =           0.1642

          OUT:                                     OUT:
          ----                                     ----
             STORAGE =       6.3159E-10               STORAGE =       5.8273E-09
       CONSTANT HEAD =           0.0000         CONSTANT HEAD =           0.0000
               WELLS =       2.6933E-02                 WELLS =           0.1642
          SWIADDTOCH =       7.7006E-10            SWIADDTOCH =           0.0000

           TOTAL OUT =       2.6933E-02             TOTAL OUT =           0.1642

            IN - OUT =      -1.4901E-08              IN - OUT =       1.4901E-08

 PERCENT DISCREPANCY =          -0.00     PERCENT DISCREPANCY =           0.00






         TIME SUMMARY AT END OF TIME STEP  135 IN STRESS PERIOD    1
                    SECONDS     MINUTES      HOURS       DAYS        YEARS
                    -----------------------------------------------------------
   TIME STEP LENGTH  105.00      1.7500     2.91667E-02 1.21528E-03 3.32726E-06
 STRESS PERIOD TIME  14175.      236.25      3.9375     0.16406     4.49179E-04
         TOTAL TIME  14175.      236.25      3.9375     0.16406     4.49179E-04
1

 SOLVING FOR HEAD 
     2 EXTERNAL ITERATIONS FOR TIME STEP 136 IN STRESS PERIOD    1

 MAXIMUM HEAD CHANGE FOR EACH ITERATION:

     HEAD CHANGE  LAY,ROW,COL      HEAD CHANGE  LAY,ROW,COL  
 ------------------------------------------------------------
    -1.933E-05 (  6,    1, 1000)  -2.079E-07 (  6,    1,  999)



 OUTPUT CONTROL FOR STRESS PERIOD    1   TIME STEP  136
    PRINT BUDGET
    SAVE HEAD FOR ALL LAYERS
 SOLVING FOR ZETA FOR LAYER     6 ZONE     2

     494 UPPER PART EQS.       494 LOWER PART EQS.    BAND WIDTH + 1 =    2
 STRESS PERIOD=  1 TIMESTEP=136 LAYER=  6 ZONE=  2 ACTIVE CELLS=  988 NUMBER OF EQUATIONS=     988
 UBUDSV SAVING "      ZETASRF  1" ON UNIT 55 AT TIME STEP136, STRESS PERIOD    1


                      VOLUMETRIC SWI ZONE BUDGET FOR ENTIRE MODEL
                     AT END OF TIME STEP  136 IN STRESS PERIOD   1
                                      ZONE     1
  -----------------------------------------------------------------------------------

        CUMULATIVE VOLUMES      L**3       RATES FOR THIS TIME STEP      L**3/T
        ------------------                 ------------------------

              IN:                                      IN:
              ---                                      ---
             BOUNDARIES =       2.7484E-08            BOUNDARIES =       1.5277E-07
          CONSTANT HEAD =       2.5615E-02         CONSTANT HEAD =           0.1587
            ZONE CHANGE =       1.5615E-03           ZONE CHANGE =       5.8709E-03
       ZONE CHG TIP/TOE =       1.9359E-05      ZONE CHG TIP/TOE =       3.0707E-05
            ZONE MIXING =           0.0000           ZONE MIXING =           0.0000

               TOTAL IN =       2.7196E-02              TOTAL IN =           0.1646

             OUT:                                     OUT:
             ----                                     ----
             BOUNDARIES =       2.7132E-02            BOUNDARIES =           0.1642
          CONSTANT HEAD =           0.0000         CONSTANT HEAD =           0.0000
            ZONE CHANGE =       6.2623E-05           ZONE CHANGE =       4.4355E-04
       ZONE CHG TIP/TOE =       3.0187E-07      ZONE CHG TIP/TOE =       2.8963E-06
            ZONE MIXING =           0.0000           ZONE MIXING =           0.0000

              TOTAL OUT =       2.7195E-02             TOTAL OUT =           0.1646

               IN - OUT =       6.9849E-07              IN - OUT =       6.2287E-06

    PERCENT DISCREPANCY =           0.00     PERCENT DISCREPANCY =           0.00



                      VOLUMETRIC SWI ZONE BUDGET FOR ENTIRE MODEL
                     AT END OF TIME STEP  136 IN STRESS PERIOD   1
                                      ZONE     2
  -----------------------------------------------------------------------------------

        CUMULATIVE VOLUMES      L**3       RATES FOR THIS TIME STEP      L**3/T
        ------------------                 ------------------------

              IN:                                      IN:
              ---                                      ---
             BOUNDARIES =       1.0717E-13            BOUNDARIES =       6.7800E-13
          CONSTANT HEAD =       1.4481E-03         CONSTANT HEAD =       5.4327E-03
            ZONE CHANGE =       5.9815E-05           ZONE CHANGE =       4.2701E-04
       ZONE CHG TIP/TOE =       3.0187E-07      ZONE CHG TIP/TOE =       2.8963E-06
            ZONE MIXING =           0.0000           ZONE MIXING =           0.0000

               TOTAL IN =       1.5083E-03              TOTAL IN =       5.8626E-03

             OUT:                                     OUT:
             ----                                     ----
             BOUNDARIES =       1.0682E-13            BOUNDARIES =       6.1717E-13
          CONSTANT HEAD =           0.0000         CONSTANT HEAD =           0.0000
            ZONE CHANGE =       1.4924E-03           ZONE CHANGE =       5.8544E-03
       ZONE CHG TIP/TOE =       1.6550E-05      ZONE CHG TIP/TOE =       1.4173E-05
            ZONE MIXING =           0.0000           ZONE MIXING =           0.0000

              TOTAL OUT =       1.5089E-03             TOTAL OUT =       5.8686E-03

               IN - OUT =      -6.4145E-07              IN - OUT =      -5.9055E-06

    PERCENT DISCREPANCY =          -0.04     PERCENT DISCREPANCY =          -0.10


 HEAD WILL BE SAVED ON UNIT   51 AT END OF TIME STEP  136, STRESS PERIOD    1
1
  VOLUMETRIC BUDGET FOR ENTIRE MODEL AT END OF TIME STEP  136, STRESS PERIOD   1
  ------------------------------------------------------------------------------

     CUMULATIVE VOLUMES      L**3       RATES FOR THIS TIME STEP      L**3/T
     ------------------                 ------------------------

           IN:                                      IN:
           ---                                      ---
             STORAGE =       6.9048E-05               STORAGE =       1.6223E-05
       CONSTANT HEAD =       2.7063E-02         CONSTANT HEAD =           0.1641
               WELLS =           0.0000                 WELLS =           0.0000
          SWIADDTOCH =           0.0000            SWIADDTOCH =           0.0000

            TOTAL IN =       2.7132E-02              TOTAL IN =           0.1642

          OUT:                                     OUT:
          ----                                     ----
             STORAGE =       6.3301E-10               STORAGE =       1.1676E-09
       CONSTANT HEAD =           0.0000         CONSTANT HEAD =           0.0000
               WELLS =       2.7132E-02                 WELLS =           0.1642
          SWIADDTOCH =       7.7006E-10            SWIADDTOCH =           0.0000

           TOTAL OUT =       2.7132E-02             TOTAL OUT =           0.1642

            IN - OUT =      -1.4901E-08              IN - OUT =       4.4703E-08

 PERCENT DISCREPANCY =          -0.00     PERCENT DISCREPANCY =           0.00






         TIME SUMMARY AT END OF TIME STEP  136 IN STRESS PERIOD    1
                    SECONDS     MINUTES      HOURS       DAYS        YEARS
                    -----------------------------------------------------------
   TIME STEP LENGTH  105.00      1.7500     2.91667E-02 1.21528E-03 3.32726E-06
 STRESS PERIOD TIME  14280.      238.00      3.9667     0.16528     4.52506E-04
         TOTAL TIME  14280.      238.00      3.9667     0.16528     4.52506E-04
1

 SOLVING FOR HEAD 
     2 EXTERNAL ITERATIONS FOR TIME STEP 137 IN STRESS PERIOD    1

 MAXIMUM HEAD CHANGE FOR EACH ITERATION:

     HEAD CHANGE  LAY,ROW,COL      HEAD CHANGE  LAY,ROW,COL  
 ------------------------------------------------------------
    -1.933E-05 (  6,    1, 1000)  -2.073E-07 (  6,    1,  999)



 OUTPUT CONTROL FOR STRESS PERIOD    1   TIME STEP  137
    PRINT BUDGET
    SAVE HEAD FOR ALL LAYERS
 SOLVING FOR ZETA FOR LAYER     6 ZONE     2

     494 UPPER PART EQS.       495 LOWER PART EQS.    BAND WIDTH + 1 =    2
 STRESS PERIOD=  1 TIMESTEP=137 LAYER=  6 ZONE=  2 ACTIVE CELLS=  989 NUMBER OF EQUATIONS=     989
 UBUDSV SAVING "      ZETASRF  1" ON UNIT 55 AT TIME STEP137, STRESS PERIOD    1


                      VOLUMETRIC SWI ZONE BUDGET FOR ENTIRE MODEL
                     AT END OF TIME STEP  137 IN STRESS PERIOD   1
                                      ZONE     1
  -----------------------------------------------------------------------------------

        CUMULATIVE VOLUMES      L**3       RATES FOR THIS TIME STEP      L**3/T
        ------------------                 ------------------------

              IN:                                      IN:
              ---                                      ---
             BOUNDARIES =       2.7693E-08            BOUNDARIES =       1.7190E-07
          CONSTANT HEAD =       2.5808E-02         CONSTANT HEAD =           0.1587
            ZONE CHANGE =       1.5685E-03           ZONE CHANGE =       5.7795E-03
       ZONE CHG TIP/TOE =       1.9397E-05      ZONE CHG TIP/TOE =       3.1430E-05
            ZONE MIXING =           0.0000           ZONE MIXING =           0.0000

               TOTAL IN =       2.7396E-02              TOTAL IN =           0.1646

             OUT:                                     OUT:
             ----                                     ----
             BOUNDARIES =       2.7332E-02            BOUNDARIES =           0.1642
          CONSTANT HEAD =           0.0000         CONSTANT HEAD =           0.0000
            ZONE CHANGE =       6.3094E-05           ZONE CHANGE =       3.8786E-04
       ZONE CHG TIP/TOE =       3.0304E-07      ZONE CHG TIP/TOE =       9.5754E-07
            ZONE MIXING =           0.0000           ZONE MIXING =           0.0000

              TOTAL OUT =       2.7395E-02             TOTAL OUT =           0.1645

               IN - OUT =       7.0781E-07              IN - OUT =       7.8231E-06

    PERCENT DISCREPANCY =           0.00     PERCENT DISCREPANCY =           0.00



                      VOLUMETRIC SWI ZONE BUDGET FOR ENTIRE MODEL
                     AT END OF TIME STEP  137 IN STRESS PERIOD   1
                                      ZONE     2
  -----------------------------------------------------------------------------------

        CUMULATIVE VOLUMES      L**3       RATES FOR THIS TIME STEP      L**3/T
        ------------------                 ------------------------

              IN:                                      IN:
              ---                                      ---
             BOUNDARIES =       1.0799E-13            BOUNDARIES =       6.7290E-13
          CONSTANT HEAD =       1.4547E-03         CONSTANT HEAD =       5.3982E-03
            ZONE CHANGE =       6.0267E-05           ZONE CHANGE =       3.7194E-04
       ZONE CHG TIP/TOE =       3.0304E-07      ZONE CHG TIP/TOE =       9.5754E-07
            ZONE MIXING =           0.0000           ZONE MIXING =           0.0000

               TOTAL IN =       1.5153E-03              TOTAL IN =       5.7711E-03

             OUT:                                     OUT:
             ----                                     ----
             BOUNDARIES =       1.0760E-13            BOUNDARIES =       6.4000E-13
          CONSTANT HEAD =           0.0000         CONSTANT HEAD =           0.0000
            ZONE CHANGE =       1.4994E-03           ZONE CHANGE =       5.7631E-03
       ZONE CHG TIP/TOE =       1.6569E-05      ZONE CHG TIP/TOE =       1.5516E-05
            ZONE MIXING =           0.0000           ZONE MIXING =           0.0000

              TOTAL OUT =       1.5159E-03             TOTAL OUT =       5.7786E-03

               IN - OUT =      -6.5053E-07              IN - OUT =      -7.4860E-06

    PERCENT DISCREPANCY =          -0.04     PERCENT DISCREPANCY =          -0.13


 HEAD WILL BE SAVED ON UNIT   51 AT END OF TIME STEP  137, STRESS PERIOD    1
1
  VOLUMETRIC BUDGET FOR ENTIRE MODEL AT END OF TIME STEP  137, STRESS PERIOD   1
  ------------------------------------------------------------------------------

     CUMULATIVE VOLUMES      L**3       RATES FOR THIS TIME STEP      L**3/T
     ------------------                 ------------------------

           IN:                                      IN:
           ---                                      ---
             STORAGE =       6.9068E-05               STORAGE =       1.6146E-05
       CONSTANT HEAD =       2.7262E-02         CONSTANT HEAD =           0.1641
               WELLS =           0.0000                 WELLS =           0.0000
          SWIADDTOCH =           0.0000            SWIADDTOCH =           0.0000

            TOTAL IN =       2.7332E-02              TOTAL IN =           0.1642

          OUT:                                     OUT:
          ----                                     ----
             STORAGE =       6.3896E-10               STORAGE =       4.8895E-09
       CONSTANT HEAD =           0.0000         CONSTANT HEAD =           0.0000
               WELLS =       2.7332E-02                 WELLS =           0.1642
          SWIADDTOCH =       7.7006E-10            SWIADDTOCH =           0.0000

           TOTAL OUT =       2.7332E-02             TOTAL OUT =           0.1642

            IN - OUT =      -1.6764E-08              IN - OUT =       1.4901E-08

 PERCENT DISCREPANCY =          -0.00     PERCENT DISCREPANCY =           0.00






         TIME SUMMARY AT END OF TIME STEP  137 IN STRESS PERIOD    1
                    SECONDS     MINUTES      HOURS       DAYS        YEARS
                    -----------------------------------------------------------
   TIME STEP LENGTH  105.00      1.7500     2.91667E-02 1.21528E-03 3.32726E-06
 STRESS PERIOD TIME  14385.      239.75      3.9958     0.16649     4.55834E-04
         TOTAL TIME  14385.      239.75      3.9958     0.16649     4.55834E-04
1

 SOLVING FOR HEAD 
     2 EXTERNAL ITERATIONS FOR TIME STEP 138 IN STRESS PERIOD    1

 MAXIMUM HEAD CHANGE FOR EACH ITERATION:

     HEAD CHANGE  LAY,ROW,COL      HEAD CHANGE  LAY,ROW,COL  
 ------------------------------------------------------------
    -1.934E-05 (  6,    1, 1000)  -2.068E-07 (  6,    1,  999)



 OUTPUT CONTROL FOR STRESS PERIOD    1   TIME STEP  138
    PRINT BUDGET
    SAVE HEAD FOR ALL LAYERS
 SOLVING FOR ZETA FOR LAYER     6 ZONE     2

     496 UPPER PART EQS.       495 LOWER PART EQS.    BAND WIDTH + 1 =    3
 STRESS PERIOD=  1 TIMESTEP=138 LAYER=  6 ZONE=  2 ACTIVE CELLS=  991 NUMBER OF EQUATIONS=     991
 UBUDSV SAVING "      ZETASRF  1" ON UNIT 55 AT TIME STEP138, STRESS PERIOD    1


                      VOLUMETRIC SWI ZONE BUDGET FOR ENTIRE MODEL
                     AT END OF TIME STEP  138 IN STRESS PERIOD   1
                                      ZONE     1
  -----------------------------------------------------------------------------------

        CUMULATIVE VOLUMES      L**3       RATES FOR THIS TIME STEP      L**3/T
        ------------------                 ------------------------

              IN:                                      IN:
              ---                                      ---
             BOUNDARIES =       2.7895E-08            BOUNDARIES =       1.6562E-07
          CONSTANT HEAD =       2.6001E-02         CONSTANT HEAD =           0.1588
            ZONE CHANGE =       1.5754E-03           ZONE CHANGE =       5.7070E-03
       ZONE CHG TIP/TOE =       1.9436E-05      ZONE CHG TIP/TOE =       3.2200E-05
            ZONE MIXING =           0.0000           ZONE MIXING =           0.0000

               TOTAL IN =       2.7596E-02              TOTAL IN =           0.1645

             OUT:                                     OUT:
             ----                                     ----
             BOUNDARIES =       2.7531E-02            BOUNDARIES =           0.1642
          CONSTANT HEAD =           0.0000         CONSTANT HEAD =           0.0000
            ZONE CHANGE =       6.3522E-05           ZONE CHANGE =       3.5162E-04
       ZONE CHG TIP/TOE =       3.0426E-07      ZONE CHG TIP/TOE =       1.0072E-06
            ZONE MIXING =           0.0000           ZONE MIXING =           0.0000

              TOTAL OUT =       2.7595E-02             TOTAL OUT =           0.1645

               IN - OUT =       7.1712E-07              IN - OUT =       6.8396E-06

    PERCENT DISCREPANCY =           0.00     PERCENT DISCREPANCY =           0.00



                      VOLUMETRIC SWI ZONE BUDGET FOR ENTIRE MODEL
                     AT END OF TIME STEP  138 IN STRESS PERIOD   1
                                      ZONE     2
  -----------------------------------------------------------------------------------

        CUMULATIVE VOLUMES      L**3       RATES FOR THIS TIME STEP      L**3/T
        ------------------                 ------------------------

              IN:                                      IN:
              ---                                      ---
             BOUNDARIES =       1.0873E-13            BOUNDARIES =       6.1189E-13
          CONSTANT HEAD =       1.4612E-03         CONSTANT HEAD =       5.3637E-03
            ZONE CHANGE =       6.0675E-05           ZONE CHANGE =       3.3559E-04
       ZONE CHG TIP/TOE =       3.0426E-07      ZONE CHG TIP/TOE =       1.0072E-06
            ZONE MIXING =           0.0000           ZONE MIXING =           0.0000

               TOTAL IN =       1.5222E-03              TOTAL IN =       5.7003E-03

             OUT:                                     OUT:
             ----                                     ----
             BOUNDARIES =       1.0843E-13            BOUNDARIES =       6.8982E-13
          CONSTANT HEAD =           0.0000         CONSTANT HEAD =           0.0000
            ZONE CHANGE =       1.5063E-03           ZONE CHANGE =       5.6906E-03
       ZONE CHG TIP/TOE =       1.6589E-05      ZONE CHG TIP/TOE =       1.6170E-05
            ZONE MIXING =           0.0000           ZONE MIXING =           0.0000

              TOTAL OUT =       1.5229E-03             TOTAL OUT =       5.7068E-03

               IN - OUT =      -6.5833E-07              IN - OUT =      -6.5058E-06

    PERCENT DISCREPANCY =          -0.04     PERCENT DISCREPANCY =          -0.11


 HEAD WILL BE SAVED ON UNIT   51 AT END OF TIME STEP  138, STRESS PERIOD    1
1
  VOLUMETRIC BUDGET FOR ENTIRE MODEL AT END OF TIME STEP  138, STRESS PERIOD   1
  ------------------------------------------------------------------------------

     CUMULATIVE VOLUMES      L**3       RATES FOR THIS TIME STEP      L**3/T
     ------------------                 ------------------------

           IN:                                      IN:
           ---                                      ---
             STORAGE =       6.9087E-05               STORAGE =       1.6105E-05
       CONSTANT HEAD =       2.7462E-02         CONSTANT HEAD =           0.1641
               WELLS =           0.0000                 WELLS =           0.0000
          SWIADDTOCH =           0.0000            SWIADDTOCH =           0.0000

            TOTAL IN =       2.7531E-02              TOTAL IN =           0.1642

          OUT:                                     OUT:
          ----                                     ----
             STORAGE =       6.4489E-10               STORAGE =       4.8868E-09
       CONSTANT HEAD =           0.0000         CONSTANT HEAD =           0.0000
               WELLS =       2.7531E-02                 WELLS =           0.1642
          SWIADDTOCH =       8.4351E-10            SWIADDTOCH =       6.0441E-08

           TOTAL OUT =       2.7531E-02             TOTAL OUT =           0.1642

            IN - OUT =      -1.6764E-08              IN - OUT =       2.9802E-08

 PERCENT DISCREPANCY =          -0.00     PERCENT DISCREPANCY =           0.00






         TIME SUMMARY AT END OF TIME STEP  138 IN STRESS PERIOD    1
                    SECONDS     MINUTES      HOURS       DAYS        YEARS
                    -----------------------------------------------------------
   TIME STEP LENGTH  105.00      1.7500     2.91667E-02 1.21528E-03 3.32726E-06
 STRESS PERIOD TIME  14490.      241.50      4.0250     0.16771     4.59161E-04
         TOTAL TIME  14490.      241.50      4.0250     0.16771     4.59161E-04
1

 SOLVING FOR HEAD 
     2 EXTERNAL ITERATIONS FOR TIME STEP 139 IN STRESS PERIOD    1

 MAXIMUM HEAD CHANGE FOR EACH ITERATION:

     HEAD CHANGE  LAY,ROW,COL      HEAD CHANGE  LAY,ROW,COL  
 ------------------------------------------------------------
    -1.933E-05 (  6,    1, 1000)  -2.061E-07 (  6,    1,  999)



 OUTPUT CONTROL FOR STRESS PERIOD    1   TIME STEP  139
    PRINT BUDGET
    SAVE HEAD FOR ALL LAYERS
 SOLVING FOR ZETA FOR LAYER     6 ZONE     2

     495 UPPER PART EQS.       496 LOWER PART EQS.    BAND WIDTH + 1 =    3
 STRESS PERIOD=  1 TIMESTEP=139 LAYER=  6 ZONE=  2 ACTIVE CELLS=  991 NUMBER OF EQUATIONS=     991
 UBUDSV SAVING "      ZETASRF  1" ON UNIT 55 AT TIME STEP139, STRESS PERIOD    1


                      VOLUMETRIC SWI ZONE BUDGET FOR ENTIRE MODEL
                     AT END OF TIME STEP  139 IN STRESS PERIOD   1
                                      ZONE     1
  -----------------------------------------------------------------------------------

        CUMULATIVE VOLUMES      L**3       RATES FOR THIS TIME STEP      L**3/T
        ------------------                 ------------------------

              IN:                                      IN:
              ---                                      ---
             BOUNDARIES =       2.8088E-08            BOUNDARIES =       1.5944E-07
          CONSTANT HEAD =       2.6194E-02         CONSTANT HEAD =           0.1588
            ZONE CHANGE =       1.5823E-03           ZONE CHANGE =       5.6442E-03
       ZONE CHG TIP/TOE =       1.9471E-05      ZONE CHG TIP/TOE =       2.8937E-05
            ZONE MIXING =           0.0000           ZONE MIXING =           0.0000

               TOTAL IN =       2.7796E-02              TOTAL IN =           0.1645

             OUT:                                     OUT:
             ----                                     ----
             BOUNDARIES =       2.7731E-02            BOUNDARIES =           0.1642
          CONSTANT HEAD =           0.0000         CONSTANT HEAD =           0.0000
            ZONE CHANGE =       6.3912E-05           ZONE CHANGE =       3.2076E-04
       ZONE CHG TIP/TOE =       3.0605E-07      ZONE CHG TIP/TOE =       1.4743E-06
            ZONE MIXING =           0.0000           ZONE MIXING =           0.0000

              TOTAL OUT =       2.7795E-02             TOTAL OUT =           0.1645

               IN - OUT =       7.2457E-07              IN - OUT =       5.7518E-06

    PERCENT DISCREPANCY =           0.00     PERCENT DISCREPANCY =           0.00



                      VOLUMETRIC SWI ZONE BUDGET FOR ENTIRE MODEL
                     AT END OF TIME STEP  139 IN STRESS PERIOD   1
                                      ZONE     2
  -----------------------------------------------------------------------------------

        CUMULATIVE VOLUMES      L**3       RATES FOR THIS TIME STEP      L**3/T
        ------------------                 ------------------------

              IN:                                      IN:
              ---                                      ---
             BOUNDARIES =       1.0948E-13            BOUNDARIES =       6.1820E-13
          CONSTANT HEAD =       1.4677E-03         CONSTANT HEAD =       5.3291E-03
            ZONE CHANGE =       6.1045E-05           ZONE CHANGE =       3.0455E-04
       ZONE CHG TIP/TOE =       3.0605E-07      ZONE CHG TIP/TOE =       1.4743E-06
            ZONE MIXING =           0.0000           ZONE MIXING =           0.0000

               TOTAL IN =       1.5291E-03              TOTAL IN =       5.6351E-03

             OUT:                                     OUT:
             ----                                     ----
             BOUNDARIES =       1.0923E-13            BOUNDARIES =       6.5547E-13
          CONSTANT HEAD =           0.0000         CONSTANT HEAD =           0.0000
            ZONE CHANGE =       1.5131E-03           ZONE CHANGE =       5.6278E-03
       ZONE CHG TIP/TOE =       1.6604E-05      ZONE CHG TIP/TOE =       1.2729E-05
            ZONE MIXING =           0.0000           ZONE MIXING =           0.0000

              TOTAL OUT =       1.5297E-03             TOTAL OUT =       5.6405E-03

               IN - OUT =      -6.6496E-07              IN - OUT =      -5.4245E-06

    PERCENT DISCREPANCY =          -0.04     PERCENT DISCREPANCY =          -0.10


 HEAD WILL BE SAVED ON UNIT   51 AT END OF TIME STEP  139, STRESS PERIOD    1
1
  VOLUMETRIC BUDGET FOR ENTIRE MODEL AT END OF TIME STEP  139, STRESS PERIOD   1
  ------------------------------------------------------------------------------

     CUMULATIVE VOLUMES      L**3       RATES FOR THIS TIME STEP      L**3/T
     ------------------                 ------------------------

           IN:                                      IN:
           ---                                      ---
             STORAGE =       6.9107E-05               STORAGE =       1.6069E-05
       CONSTANT HEAD =       2.7661E-02         CONSTANT HEAD =           0.1641
               WELLS =           0.0000                 WELLS =           0.0000
          SWIADDTOCH =           0.0000            SWIADDTOCH =           0.0000

            TOTAL IN =       2.7731E-02              TOTAL IN =           0.1642

          OUT:                                     OUT:
          ----                                     ----
             STORAGE =       6.4970E-10               STORAGE =       3.9532E-09
       CONSTANT HEAD =           0.0000         CONSTANT HEAD =           0.0000
               WELLS =       2.7731E-02                 WELLS =           0.1642
          SWIADDTOCH =       8.4351E-10            SWIADDTOCH =           0.0000

           TOTAL OUT =       2.7731E-02             TOTAL OUT =           0.1642

            IN - OUT =      -1.8626E-08              IN - OUT =       4.4703E-08

 PERCENT DISCREPANCY =          -0.00     PERCENT DISCREPANCY =           0.00






         TIME SUMMARY AT END OF TIME STEP  139 IN STRESS PERIOD    1
                    SECONDS     MINUTES      HOURS       DAYS        YEARS
                    -----------------------------------------------------------
   TIME STEP LENGTH  105.00      1.7500     2.91667E-02 1.21528E-03 3.32726E-06
 STRESS PERIOD TIME  14595.      243.25      4.0542     0.16892     4.62488E-04
         TOTAL TIME  14595.      243.25      4.0542     0.16892     4.62488E-04
1

 SOLVING FOR HEAD 
     2 EXTERNAL ITERATIONS FOR TIME STEP 140 IN STRESS PERIOD    1

 MAXIMUM HEAD CHANGE FOR EACH ITERATION:

     HEAD CHANGE  LAY,ROW,COL      HEAD CHANGE  LAY,ROW,COL  
 ------------------------------------------------------------
    -1.932E-05 (  6,    1, 1000)  -2.054E-07 (  6,    1,  999)



 OUTPUT CONTROL FOR STRESS PERIOD    1   TIME STEP  140
    PRINT BUDGET
    SAVE HEAD FOR ALL LAYERS
 SOLVING FOR ZETA FOR LAYER     6 ZONE     2

     492 UPPER PART EQS.       496 LOWER PART EQS.    BAND WIDTH + 1 =    4
 STRESS PERIOD=  1 TIMESTEP=140 LAYER=  6 ZONE=  2 ACTIVE CELLS=  988 NUMBER OF EQUATIONS=     988
 UBUDSV SAVING "      ZETASRF  1" ON UNIT 55 AT TIME STEP140, STRESS PERIOD    1


                      VOLUMETRIC SWI ZONE BUDGET FOR ENTIRE MODEL
                     AT END OF TIME STEP  140 IN STRESS PERIOD   1
                                      ZONE     1
  -----------------------------------------------------------------------------------

        CUMULATIVE VOLUMES      L**3       RATES FOR THIS TIME STEP      L**3/T
        ------------------                 ------------------------

              IN:                                      IN:
              ---                                      ---
             BOUNDARIES =       2.8286E-08            BOUNDARIES =       1.6216E-07
          CONSTANT HEAD =       2.6387E-02         CONSTANT HEAD =           0.1588
            ZONE CHANGE =       1.5890E-03           ZONE CHANGE =       5.5701E-03
       ZONE CHG TIP/TOE =       1.9501E-05      ZONE CHG TIP/TOE =       2.4313E-05
            ZONE MIXING =           0.0000           ZONE MIXING =           0.0000

               TOTAL IN =       2.7995E-02              TOTAL IN =           0.1644

             OUT:                                     OUT:
             ----                                     ----
             BOUNDARIES =       2.7930E-02            BOUNDARIES =           0.1642
          CONSTANT HEAD =           0.0000         CONSTANT HEAD =           0.0000
            ZONE CHANGE =       6.4257E-05           ZONE CHANGE =       2.8447E-04
       ZONE CHG TIP/TOE =       3.0690E-07      ZONE CHG TIP/TOE =       6.9765E-07
            ZONE MIXING =           0.0000           ZONE MIXING =           0.0000

              TOTAL OUT =       2.7995E-02             TOTAL OUT =           0.1644

               IN - OUT =       7.2084E-07              IN - OUT =      -1.2070E-06

    PERCENT DISCREPANCY =           0.00     PERCENT DISCREPANCY =          -0.00



                      VOLUMETRIC SWI ZONE BUDGET FOR ENTIRE MODEL
                     AT END OF TIME STEP  140 IN STRESS PERIOD   1
                                      ZONE     2
  -----------------------------------------------------------------------------------

        CUMULATIVE VOLUMES      L**3       RATES FOR THIS TIME STEP      L**3/T
        ------------------                 ------------------------

              IN:                                      IN:
              ---                                      ---
             BOUNDARIES =       1.1027E-13            BOUNDARIES =       6.5010E-13
          CONSTANT HEAD =       1.4741E-03         CONSTANT HEAD =       5.2945E-03
            ZONE CHANGE =       6.1376E-05           ZONE CHANGE =       2.7293E-04
       ZONE CHG TIP/TOE =       3.0690E-07      ZONE CHG TIP/TOE =       6.9765E-07
            ZONE MIXING =           0.0000           ZONE MIXING =           0.0000

               TOTAL IN =       1.5358E-03              TOTAL IN =       5.5681E-03

             OUT:                                     OUT:
             ----                                     ----
             BOUNDARIES =       1.0996E-13            BOUNDARIES =       5.9804E-13
          CONSTANT HEAD =           0.0000         CONSTANT HEAD =           0.0000
            ZONE CHANGE =       1.5199E-03           ZONE CHANGE =       5.5538E-03
       ZONE CHG TIP/TOE =       1.6620E-05      ZONE CHG TIP/TOE =       1.2771E-05
            ZONE MIXING =           0.0000           ZONE MIXING =           0.0000

              TOTAL OUT =       1.5365E-03             TOTAL OUT =       5.5666E-03

               IN - OUT =      -6.6310E-07              IN - OUT =       1.5371E-06

    PERCENT DISCREPANCY =          -0.04     PERCENT DISCREPANCY =           0.03


 HEAD WILL BE SAVED ON UNIT   51 AT END OF TIME STEP  140, STRESS PERIOD    1
1
  VOLUMETRIC BUDGET FOR ENTIRE MODEL AT END OF TIME STEP  140, STRESS PERIOD   1
  ------------------------------------------------------------------------------

     CUMULATIVE VOLUMES      L**3       RATES FOR THIS TIME STEP      L**3/T
     ------------------                 ------------------------

           IN:                                      IN:
           ---                                      ---
             STORAGE =       6.9126E-05               STORAGE =       1.5993E-05
       CONSTANT HEAD =       2.7861E-02         CONSTANT HEAD =           0.1641
               WELLS =           0.0000                 WELLS =           0.0000
          SWIADDTOCH =           0.0000            SWIADDTOCH =           0.0000

            TOTAL IN =       2.7930E-02              TOTAL IN =           0.1642

          OUT:                                     OUT:
          ----                                     ----
             STORAGE =       6.5337E-10               STORAGE =       3.0195E-09
       CONSTANT HEAD =           0.0000         CONSTANT HEAD =           0.0000
               WELLS =       2.7930E-02                 WELLS =           0.1642
          SWIADDTOCH =       8.4351E-10            SWIADDTOCH =           0.0000

           TOTAL OUT =       2.7930E-02             TOTAL OUT =           0.1642

            IN - OUT =      -1.6764E-08              IN - OUT =       2.9802E-08

 PERCENT DISCREPANCY =          -0.00     PERCENT DISCREPANCY =           0.00






         TIME SUMMARY AT END OF TIME STEP  140 IN STRESS PERIOD    1
                    SECONDS     MINUTES      HOURS       DAYS        YEARS
                    -----------------------------------------------------------
   TIME STEP LENGTH  105.00      1.7500     2.91667E-02 1.21528E-03 3.32726E-06
 STRESS PERIOD TIME  14700.      245.00      4.0833     0.17014     4.65815E-04
         TOTAL TIME  14700.      245.00      4.0833     0.17014     4.65815E-04
1

 SOLVING FOR HEAD 
     2 EXTERNAL ITERATIONS FOR TIME STEP 141 IN STRESS PERIOD    1

 MAXIMUM HEAD CHANGE FOR EACH ITERATION:

     HEAD CHANGE  LAY,ROW,COL      HEAD CHANGE  LAY,ROW,COL  
 ------------------------------------------------------------
    -1.932E-05 (  6,    1, 1000)  -2.049E-07 (  6,    1,  999)



 OUTPUT CONTROL FOR STRESS PERIOD    1   TIME STEP  141
    PRINT BUDGET
    SAVE HEAD FOR ALL LAYERS
 SOLVING FOR ZETA FOR LAYER     6 ZONE     2

     496 UPPER PART EQS.       496 LOWER PART EQS.    BAND WIDTH + 1 =    3
 STRESS PERIOD=  1 TIMESTEP=141 LAYER=  6 ZONE=  2 ACTIVE CELLS=  992 NUMBER OF EQUATIONS=     992
 UBUDSV SAVING "      ZETASRF  1" ON UNIT 55 AT TIME STEP141, STRESS PERIOD    1


                      VOLUMETRIC SWI ZONE BUDGET FOR ENTIRE MODEL
                     AT END OF TIME STEP  141 IN STRESS PERIOD   1
                                      ZONE     1
  -----------------------------------------------------------------------------------

        CUMULATIVE VOLUMES      L**3       RATES FOR THIS TIME STEP      L**3/T
        ------------------                 ------------------------

              IN:                                      IN:
              ---                                      ---
             BOUNDARIES =       2.8483E-08            BOUNDARIES =       1.6290E-07
          CONSTANT HEAD =       2.6580E-02         CONSTANT HEAD =           0.1589
            ZONE CHANGE =       1.5957E-03           ZONE CHANGE =       5.5080E-03
       ZONE CHG TIP/TOE =       1.9534E-05      ZONE CHG TIP/TOE =       2.7048E-05
            ZONE MIXING =           0.0000           ZONE MIXING =           0.0000

               TOTAL IN =       2.8195E-02              TOTAL IN =           0.1644

             OUT:                                     OUT:
             ----                                     ----
             BOUNDARIES =       2.8130E-02            BOUNDARIES =           0.1642
          CONSTANT HEAD =           0.0000         CONSTANT HEAD =           0.0000
            ZONE CHANGE =       6.4566E-05           ZONE CHANGE =       2.5391E-04
       ZONE CHG TIP/TOE =       3.0841E-07      ZONE CHG TIP/TOE =       1.2454E-06
            ZONE MIXING =           0.0000           ZONE MIXING =           0.0000

              TOTAL OUT =       2.8194E-02             TOTAL OUT =           0.1644

               IN - OUT =       7.2643E-07              IN - OUT =       3.7998E-06

    PERCENT DISCREPANCY =           0.00     PERCENT DISCREPANCY =           0.00



                      VOLUMETRIC SWI ZONE BUDGET FOR ENTIRE MODEL
                     AT END OF TIME STEP  141 IN STRESS PERIOD   1
                                      ZONE     2
  -----------------------------------------------------------------------------------

        CUMULATIVE VOLUMES      L**3       RATES FOR THIS TIME STEP      L**3/T
        ------------------                 ------------------------

              IN:                                      IN:
              ---                                      ---
             BOUNDARIES =       1.1103E-13            BOUNDARIES =       6.2396E-13
          CONSTANT HEAD =       1.4805E-03         CONSTANT HEAD =       5.2601E-03
            ZONE CHANGE =       6.1669E-05           ZONE CHANGE =       2.4081E-04
       ZONE CHG TIP/TOE =       3.0841E-07      ZONE CHG TIP/TOE =       1.2454E-06
            ZONE MIXING =           0.0000           ZONE MIXING =           0.0000

               TOTAL IN =       1.5425E-03              TOTAL IN =       5.5022E-03

             OUT:                                     OUT:
             ----                                     ----
             BOUNDARIES =       1.1072E-13            BOUNDARIES =       6.2377E-13
          CONSTANT HEAD =           0.0000         CONSTANT HEAD =           0.0000
            ZONE CHANGE =       1.5265E-03           ZONE CHANGE =       5.4917E-03
       ZONE CHG TIP/TOE =       1.6637E-05      ZONE CHG TIP/TOE =       1.3942E-05
            ZONE MIXING =           0.0000           ZONE MIXING =           0.0000

              TOTAL OUT =       1.5432E-03             TOTAL OUT =       5.5057E-03

               IN - OUT =      -6.6729E-07              IN - OUT =      -3.4706E-06

    PERCENT DISCREPANCY =          -0.04     PERCENT DISCREPANCY =          -0.06


 HEAD WILL BE SAVED ON UNIT   51 AT END OF TIME STEP  141, STRESS PERIOD    1
1
  VOLUMETRIC BUDGET FOR ENTIRE MODEL AT END OF TIME STEP  141, STRESS PERIOD   1
  ------------------------------------------------------------------------------

     CUMULATIVE VOLUMES      L**3       RATES FOR THIS TIME STEP      L**3/T
     ------------------                 ------------------------

           IN:                                      IN:
           ---                                      ---
             STORAGE =       6.9146E-05               STORAGE =       1.5927E-05
       CONSTANT HEAD =       2.8060E-02         CONSTANT HEAD =           0.1641
               WELLS =           0.0000                 WELLS =           0.0000
          SWIADDTOCH =           0.0000            SWIADDTOCH =           0.0000

            TOTAL IN =       2.8130E-02              TOTAL IN =           0.1642

          OUT:                                     OUT:
          ----                                     ----
             STORAGE =       6.5477E-10               STORAGE =       1.1539E-09
       CONSTANT HEAD =           0.0000         CONSTANT HEAD =           0.0000
               WELLS =       2.8130E-02                 WELLS =           0.1642
          SWIADDTOCH =       8.4351E-10            SWIADDTOCH =           0.0000

           TOTAL OUT =       2.8130E-02             TOTAL OUT =           0.1642

            IN - OUT =      -1.6764E-08              IN - OUT =       2.9802E-08

 PERCENT DISCREPANCY =          -0.00     PERCENT DISCREPANCY =           0.00






         TIME SUMMARY AT END OF TIME STEP  141 IN STRESS PERIOD    1
                    SECONDS     MINUTES      HOURS       DAYS        YEARS
                    -----------------------------------------------------------
   TIME STEP LENGTH  105.00      1.7500     2.91667E-02 1.21528E-03 3.32726E-06
 STRESS PERIOD TIME  14805.      246.75      4.1125     0.17135     4.69143E-04
         TOTAL TIME  14805.      246.75      4.1125     0.17135     4.69143E-04
1

 SOLVING FOR HEAD 
     2 EXTERNAL ITERATIONS FOR TIME STEP 142 IN STRESS PERIOD    1

 MAXIMUM HEAD CHANGE FOR EACH ITERATION:

     HEAD CHANGE  LAY,ROW,COL      HEAD CHANGE  LAY,ROW,COL  
 ------------------------------------------------------------
    -1.938E-05 (  6,    1, 1000)  -2.056E-07 (  6,    1,  999)



 OUTPUT CONTROL FOR STRESS PERIOD    1   TIME STEP  142
    PRINT BUDGET
    SAVE HEAD FOR ALL LAYERS
 SOLVING FOR ZETA FOR LAYER     6 ZONE     2

     494 UPPER PART EQS.       495 LOWER PART EQS.    BAND WIDTH + 1 =    2
 STRESS PERIOD=  1 TIMESTEP=142 LAYER=  6 ZONE=  2 ACTIVE CELLS=  989 NUMBER OF EQUATIONS=     989
 UBUDSV SAVING "      ZETASRF  1" ON UNIT 55 AT TIME STEP142, STRESS PERIOD    1


                      VOLUMETRIC SWI ZONE BUDGET FOR ENTIRE MODEL
                     AT END OF TIME STEP  142 IN STRESS PERIOD   1
                                      ZONE     1
  -----------------------------------------------------------------------------------

        CUMULATIVE VOLUMES      L**3       RATES FOR THIS TIME STEP      L**3/T
        ------------------                 ------------------------

              IN:                                      IN:
              ---                                      ---
             BOUNDARIES =       2.8666E-08            BOUNDARIES =       1.4996E-07
          CONSTANT HEAD =       2.6773E-02         CONSTANT HEAD =           0.1589
            ZONE CHANGE =       1.6024E-03           ZONE CHANGE =       5.4576E-03
       ZONE CHG TIP/TOE =       1.9560E-05      ZONE CHG TIP/TOE =       2.1989E-05
            ZONE MIXING =           0.0000           ZONE MIXING =           0.0000

               TOTAL IN =       2.8395E-02              TOTAL IN =           0.1644

             OUT:                                     OUT:
             ----                                     ----
             BOUNDARIES =       2.8329E-02            BOUNDARIES =           0.1642
          CONSTANT HEAD =           0.0000         CONSTANT HEAD =           0.0000
            ZONE CHANGE =       6.4854E-05           ZONE CHANGE =       2.3742E-04
       ZONE CHG TIP/TOE =       3.1305E-07      ZONE CHG TIP/TOE =       3.8168E-06
            ZONE MIXING =           0.0000           ZONE MIXING =           0.0000

              TOTAL OUT =       2.8394E-02             TOTAL OUT =           0.1644

               IN - OUT =       7.2271E-07              IN - OUT =      -3.4869E-06

    PERCENT DISCREPANCY =           0.00     PERCENT DISCREPANCY =          -0.00



                      VOLUMETRIC SWI ZONE BUDGET FOR ENTIRE MODEL
                     AT END OF TIME STEP  142 IN STRESS PERIOD   1
                                      ZONE     2
  -----------------------------------------------------------------------------------

        CUMULATIVE VOLUMES      L**3       RATES FOR THIS TIME STEP      L**3/T
        ------------------                 ------------------------

              IN:                                      IN:
              ---                                      ---
             BOUNDARIES =       1.1186E-13            BOUNDARIES =       6.8301E-13
          CONSTANT HEAD =       1.4869E-03         CONSTANT HEAD =       5.2260E-03
            ZONE CHANGE =       6.1944E-05           ZONE CHANGE =       2.2659E-04
       ZONE CHG TIP/TOE =       3.1305E-07      ZONE CHG TIP/TOE =       3.8168E-06
            ZONE MIXING =           0.0000           ZONE MIXING =           0.0000

               TOTAL IN =       1.5491E-03              TOTAL IN =       5.4564E-03

             OUT:                                     OUT:
             ----                                     ----
             BOUNDARIES =       1.1149E-13            BOUNDARIES =       6.3785E-13
          CONSTANT HEAD =           0.0000         CONSTANT HEAD =           0.0000
            ZONE CHANGE =       1.5332E-03           ZONE CHANGE =       5.4414E-03
       ZONE CHG TIP/TOE =       1.6650E-05      ZONE CHG TIP/TOE =       1.1165E-05
            ZONE MIXING =           0.0000           ZONE MIXING =           0.0000

              TOTAL OUT =       1.5498E-03             TOTAL OUT =       5.4525E-03

               IN - OUT =      -6.6264E-07              IN - OUT =       3.8263E-06

    PERCENT DISCREPANCY =          -0.04     PERCENT DISCREPANCY =           0.07


 HEAD WILL BE SAVED ON UNIT   51 AT END OF TIME STEP  142, STRESS PERIOD    1
1
  VOLUMETRIC BUDGET FOR ENTIRE MODEL AT END OF TIME STEP  142, STRESS PERIOD   1
  ------------------------------------------------------------------------------

     CUMULATIVE VOLUMES      L**3       RATES FOR THIS TIME STEP      L**3/T
     ------------------                 ------------------------

           IN:                                      IN:
           ---                                      ---
             STORAGE =       6.9165E-05               STORAGE =       1.5941E-05
       CONSTANT HEAD =       2.8260E-02         CONSTANT HEAD =           0.1641
               WELLS =           0.0000                 WELLS =           0.0000
          SWIADDTOCH =           0.0000            SWIADDTOCH =           0.0000

            TOTAL IN =       2.8329E-02              TOTAL IN =           0.1642

          OUT:                                     OUT:
          ----                                     ----
             STORAGE =       6.5730E-10               STORAGE =       2.0809E-09
       CONSTANT HEAD =           0.0000         CONSTANT HEAD =           0.0000
               WELLS =       2.8329E-02                 WELLS =           0.1642
          SWIADDTOCH =       8.4351E-10            SWIADDTOCH =           0.0000

           TOTAL OUT =       2.8329E-02             TOTAL OUT =           0.1642

            IN - OUT =      -1.4901E-08              IN - OUT =       4.4703E-08

 PERCENT DISCREPANCY =          -0.00     PERCENT DISCREPANCY =           0.00






         TIME SUMMARY AT END OF TIME STEP  142 IN STRESS PERIOD    1
                    SECONDS     MINUTES      HOURS       DAYS        YEARS
                    -----------------------------------------------------------
   TIME STEP LENGTH  105.00      1.7500     2.91667E-02 1.21528E-03 3.32726E-06
 STRESS PERIOD TIME  14910.      248.50      4.1417     0.17257     4.72470E-04
         TOTAL TIME  14910.      248.50      4.1417     0.17257     4.72470E-04
1

 SOLVING FOR HEAD 
     2 EXTERNAL ITERATIONS FOR TIME STEP 143 IN STRESS PERIOD    1

 MAXIMUM HEAD CHANGE FOR EACH ITERATION:

     HEAD CHANGE  LAY,ROW,COL      HEAD CHANGE  LAY,ROW,COL  
 ------------------------------------------------------------
    -1.927E-05 (  6,    1, 1000)  -2.024E-07 (  6,    1, 1000)



 OUTPUT CONTROL FOR STRESS PERIOD    1   TIME STEP  143
    PRINT BUDGET
    SAVE HEAD FOR ALL LAYERS
 SOLVING FOR ZETA FOR LAYER     6 ZONE     2
 STRESS PERIOD=  1 TIMESTEP=143 LAYER=  6 ZONE=  2 ACTIVE CELLS=  989 NUMBER OF EQUATIONS=     989
 UBUDSV SAVING "      ZETASRF  1" ON UNIT 55 AT TIME STEP143, STRESS PERIOD    1


                      VOLUMETRIC SWI ZONE BUDGET FOR ENTIRE MODEL
                     AT END OF TIME STEP  143 IN STRESS PERIOD   1
                                      ZONE     1
  -----------------------------------------------------------------------------------

        CUMULATIVE VOLUMES      L**3       RATES FOR THIS TIME STEP      L**3/T
        ------------------                 ------------------------

              IN:                                      IN:
              ---                                      ---
             BOUNDARIES =       2.8859E-08            BOUNDARIES =       1.5901E-07
          CONSTANT HEAD =       2.6966E-02         CONSTANT HEAD =           0.1590
            ZONE CHANGE =       1.6089E-03           ZONE CHANGE =       5.3958E-03
       ZONE CHG TIP/TOE =       1.9578E-05      ZONE CHG TIP/TOE =       1.4407E-05
            ZONE MIXING =           0.0000           ZONE MIXING =           0.0000

               TOTAL IN =       2.8595E-02              TOTAL IN =           0.1644

             OUT:                                     OUT:
             ----                                     ----
             BOUNDARIES =       2.8529E-02            BOUNDARIES =           0.1642
          CONSTANT HEAD =           0.0000         CONSTANT HEAD =           0.0000
            ZONE CHANGE =       6.5113E-05           ZONE CHANGE =       2.1245E-04
       ZONE CHG TIP/TOE =       3.1598E-07      ZONE CHG TIP/TOE =       2.4118E-06
            ZONE MIXING =           0.0000           ZONE MIXING =           0.0000

              TOTAL OUT =       2.8594E-02             TOTAL OUT =           0.1644

               IN - OUT =       7.0967E-07              IN - OUT =      -1.1533E-05

    PERCENT DISCREPANCY =           0.00     PERCENT DISCREPANCY =          -0.01



                      VOLUMETRIC SWI ZONE BUDGET FOR ENTIRE MODEL
                     AT END OF TIME STEP  143 IN STRESS PERIOD   1
                                      ZONE     2
  -----------------------------------------------------------------------------------

        CUMULATIVE VOLUMES      L**3       RATES FOR THIS TIME STEP      L**3/T
        ------------------                 ------------------------

              IN:                                      IN:
              ---                                      ---
             BOUNDARIES =       1.1263E-13            BOUNDARIES =       6.3006E-13
          CONSTANT HEAD =       1.4932E-03         CONSTANT HEAD =       5.1912E-03
            ZONE CHANGE =       6.2196E-05           ZONE CHANGE =       2.0686E-04
       ZONE CHG TIP/TOE =       3.1598E-07      ZONE CHG TIP/TOE =       2.4118E-06
            ZONE MIXING =           0.0000           ZONE MIXING =           0.0000

               TOTAL IN =       1.5557E-03              TOTAL IN =       5.4005E-03

             OUT:                                     OUT:
             ----                                     ----
             BOUNDARIES =       1.1221E-13            BOUNDARIES =       5.8783E-13
          CONSTANT HEAD =           0.0000         CONSTANT HEAD =           0.0000
            ZONE CHANGE =       1.5397E-03           ZONE CHANGE =       5.3798E-03
       ZONE CHG TIP/TOE =       1.6661E-05      ZONE CHG TIP/TOE =       8.8183E-06
            ZONE MIXING =           0.0000           ZONE MIXING =           0.0000

              TOTAL OUT =       1.5564E-03             TOTAL OUT =       5.3886E-03

               IN - OUT =      -6.4808E-07              IN - OUT =       1.1886E-05

    PERCENT DISCREPANCY =          -0.04     PERCENT DISCREPANCY =           0.22


 HEAD WILL BE SAVED ON UNIT   51 AT END OF TIME STEP  143, STRESS PERIOD    1
1
  VOLUMETRIC BUDGET FOR ENTIRE MODEL AT END OF TIME STEP  143, STRESS PERIOD   1
  ------------------------------------------------------------------------------

     CUMULATIVE VOLUMES      L**3       RATES FOR THIS TIME STEP      L**3/T
     ------------------                 ------------------------

           IN:                                      IN:
           ---                                      ---
             STORAGE =       6.9184E-05               STORAGE =       1.5758E-05
       CONSTANT HEAD =       2.8459E-02         CONSTANT HEAD =           0.1641
               WELLS =           0.0000                 WELLS =           0.0000
          SWIADDTOCH =           0.0000            SWIADDTOCH =           0.0000

            TOTAL IN =       2.8529E-02              TOTAL IN =           0.1642

          OUT:                                     OUT:
          ----                                     ----
             STORAGE =       6.5983E-10               STORAGE =       2.0833E-09
       CONSTANT HEAD =           0.0000         CONSTANT HEAD =           0.0000
               WELLS =       2.8529E-02                 WELLS =           0.1642
          SWIADDTOCH =       8.4351E-10            SWIADDTOCH =           0.0000

           TOTAL OUT =       2.8529E-02             TOTAL OUT =           0.1642

            IN - OUT =      -1.4901E-08              IN - OUT =       2.9802E-08

 PERCENT DISCREPANCY =          -0.00     PERCENT DISCREPANCY =           0.00






         TIME SUMMARY AT END OF TIME STEP  143 IN STRESS PERIOD    1
                    SECONDS     MINUTES      HOURS       DAYS        YEARS
                    -----------------------------------------------------------
   TIME STEP LENGTH  105.00      1.7500     2.91667E-02 1.21528E-03 3.32726E-06
 STRESS PERIOD TIME  15015.      250.25      4.1708     0.17378     4.75797E-04
         TOTAL TIME  15015.      250.25      4.1708     0.17378     4.75797E-04
1

 SOLVING FOR HEAD 
     2 EXTERNAL ITERATIONS FOR TIME STEP 144 IN STRESS PERIOD    1

 MAXIMUM HEAD CHANGE FOR EACH ITERATION:

     HEAD CHANGE  LAY,ROW,COL      HEAD CHANGE  LAY,ROW,COL  
 ------------------------------------------------------------
    -1.933E-05 (  6,    1, 1000)  -2.032E-07 (  6,    1,  999)



 OUTPUT CONTROL FOR STRESS PERIOD    1   TIME STEP  144
    PRINT BUDGET
    SAVE HEAD FOR ALL LAYERS
 SOLVING FOR ZETA FOR LAYER     6 ZONE     2

     497 UPPER PART EQS.       496 LOWER PART EQS.    BAND WIDTH + 1 =    4
 STRESS PERIOD=  1 TIMESTEP=144 LAYER=  6 ZONE=  2 ACTIVE CELLS=  993 NUMBER OF EQUATIONS=     993
 UBUDSV SAVING "      ZETASRF  1" ON UNIT 55 AT TIME STEP144, STRESS PERIOD    1


                      VOLUMETRIC SWI ZONE BUDGET FOR ENTIRE MODEL
                     AT END OF TIME STEP  144 IN STRESS PERIOD   1
                                      ZONE     1
  -----------------------------------------------------------------------------------

        CUMULATIVE VOLUMES      L**3       RATES FOR THIS TIME STEP      L**3/T
        ------------------                 ------------------------

              IN:                                      IN:
              ---                                      ---
             BOUNDARIES =       2.9058E-08            BOUNDARIES =       1.6387E-07
          CONSTANT HEAD =       2.7159E-02         CONSTANT HEAD =           0.1590
            ZONE CHANGE =       1.6154E-03           ZONE CHANGE =       5.3268E-03
       ZONE CHG TIP/TOE =       1.9594E-05      ZONE CHG TIP/TOE =       1.3699E-05
            ZONE MIXING =           0.0000           ZONE MIXING =           0.0000

               TOTAL IN =       2.8794E-02              TOTAL IN =           0.1643

             OUT:                                     OUT:
             ----                                     ----
             BOUNDARIES =       2.8728E-02            BOUNDARIES =           0.1642
          CONSTANT HEAD =           0.0000         CONSTANT HEAD =           0.0000
            ZONE CHANGE =       6.5318E-05           ZONE CHANGE =       1.6923E-04
       ZONE CHG TIP/TOE =       3.1892E-07      ZONE CHG TIP/TOE =       2.4208E-06
            ZONE MIXING =           0.0000           ZONE MIXING =           0.0000

              TOTAL OUT =       2.8794E-02             TOTAL OUT =           0.1643

               IN - OUT =       7.0781E-07              IN - OUT =      -4.0382E-06

    PERCENT DISCREPANCY =           0.00     PERCENT DISCREPANCY =          -0.00



                      VOLUMETRIC SWI ZONE BUDGET FOR ENTIRE MODEL
                     AT END OF TIME STEP  144 IN STRESS PERIOD   1
                                      ZONE     2
  -----------------------------------------------------------------------------------

        CUMULATIVE VOLUMES      L**3       RATES FOR THIS TIME STEP      L**3/T
        ------------------                 ------------------------

              IN:                                      IN:
              ---                                      ---
             BOUNDARIES =       1.1344E-13            BOUNDARIES =       6.7116E-13
          CONSTANT HEAD =       1.4995E-03         CONSTANT HEAD =       5.1572E-03
            ZONE CHANGE =       6.2392E-05           ZONE CHANGE =       1.6155E-04
       ZONE CHG TIP/TOE =       3.1892E-07      ZONE CHG TIP/TOE =       2.4208E-06
            ZONE MIXING =           0.0000           ZONE MIXING =           0.0000

               TOTAL IN =       1.5622E-03              TOTAL IN =       5.3212E-03

             OUT:                                     OUT:
             ----                                     ----
             BOUNDARIES =       1.1297E-13            BOUNDARIES =       6.2622E-13
          CONSTANT HEAD =           0.0000         CONSTANT HEAD =           0.0000
            ZONE CHANGE =       1.5461E-03           ZONE CHANGE =       5.3108E-03
       ZONE CHG TIP/TOE =       1.6668E-05      ZONE CHG TIP/TOE =       6.0199E-06
            ZONE MIXING =           0.0000           ZONE MIXING =           0.0000

              TOTAL OUT =       1.5628E-03             TOTAL OUT =       5.3168E-03

               IN - OUT =      -6.4261E-07              IN - OUT =       4.3893E-06

    PERCENT DISCREPANCY =          -0.04     PERCENT DISCREPANCY =           0.08


 HEAD WILL BE SAVED ON UNIT   51 AT END OF TIME STEP  144, STRESS PERIOD    1
1
  VOLUMETRIC BUDGET FOR ENTIRE MODEL AT END OF TIME STEP  144, STRESS PERIOD   1
  ------------------------------------------------------------------------------

     CUMULATIVE VOLUMES      L**3       RATES FOR THIS TIME STEP      L**3/T
     ------------------                 ------------------------

           IN:                                      IN:
           ---                                      ---
             STORAGE =       6.9203E-05               STORAGE =       1.5721E-05
       CONSTANT HEAD =       2.8659E-02         CONSTANT HEAD =           0.1641
               WELLS =           0.0000                 WELLS =           0.0000
          SWIADDTOCH =           0.0000            SWIADDTOCH =           0.0000

            TOTAL IN =       2.8728E-02              TOTAL IN =           0.1642

          OUT:                                     OUT:
          ----                                     ----
             STORAGE =       6.6575E-10               STORAGE =       4.8719E-09
       CONSTANT HEAD =           0.0000         CONSTANT HEAD =           0.0000
               WELLS =       2.8728E-02                 WELLS =           0.1642
          SWIADDTOCH =       8.4351E-10            SWIADDTOCH =           0.0000

           TOTAL OUT =       2.8728E-02             TOTAL OUT =           0.1642

            IN - OUT =      -1.4901E-08              IN - OUT =       2.9802E-08

 PERCENT DISCREPANCY =          -0.00     PERCENT DISCREPANCY =           0.00






         TIME SUMMARY AT END OF TIME STEP  144 IN STRESS PERIOD    1
                    SECONDS     MINUTES      HOURS       DAYS        YEARS
                    -----------------------------------------------------------
   TIME STEP LENGTH  105.00      1.7500     2.91667E-02 1.21528E-03 3.32726E-06
 STRESS PERIOD TIME  15120.      252.00      4.2000     0.17500     4.79124E-04
         TOTAL TIME  15120.      252.00      4.2000     0.17500     4.79124E-04
1

 SOLVING FOR HEAD 
     2 EXTERNAL ITERATIONS FOR TIME STEP 145 IN STRESS PERIOD    1

 MAXIMUM HEAD CHANGE FOR EACH ITERATION:

     HEAD CHANGE  LAY,ROW,COL      HEAD CHANGE  LAY,ROW,COL  
 ------------------------------------------------------------
    -1.933E-05 (  6,    1, 1000)  -2.024E-07 (  6,    1,  999)



 OUTPUT CONTROL FOR STRESS PERIOD    1   TIME STEP  145
    PRINT BUDGET
    SAVE HEAD FOR ALL LAYERS
 SOLVING FOR ZETA FOR LAYER     6 ZONE     2

     495 UPPER PART EQS.       495 LOWER PART EQS.    BAND WIDTH + 1 =    3
 STRESS PERIOD=  1 TIMESTEP=145 LAYER=  6 ZONE=  2 ACTIVE CELLS=  990 NUMBER OF EQUATIONS=     990
 UBUDSV SAVING "      ZETASRF  1" ON UNIT 55 AT TIME STEP145, STRESS PERIOD    1


                      VOLUMETRIC SWI ZONE BUDGET FOR ENTIRE MODEL
                     AT END OF TIME STEP  145 IN STRESS PERIOD   1
                                      ZONE     1
  -----------------------------------------------------------------------------------

        CUMULATIVE VOLUMES      L**3       RATES FOR THIS TIME STEP      L**3/T
        ------------------                 ------------------------

              IN:                                      IN:
              ---                                      ---
             BOUNDARIES =       2.9256E-08            BOUNDARIES =       1.6316E-07
          CONSTANT HEAD =       2.7353E-02         CONSTANT HEAD =           0.1590
            ZONE CHANGE =       1.6218E-03           ZONE CHANGE =       5.2797E-03
       ZONE CHG TIP/TOE =       1.9608E-05      ZONE CHG TIP/TOE =       1.0786E-05
            ZONE MIXING =           0.0000           ZONE MIXING =           0.0000

               TOTAL IN =       2.8994E-02              TOTAL IN =           0.1643

             OUT:                                     OUT:
             ----                                     ----
             BOUNDARIES =       2.8928E-02            BOUNDARIES =           0.1642
          CONSTANT HEAD =           0.0000         CONSTANT HEAD =           0.0000
            ZONE CHANGE =       6.5513E-05           ZONE CHANGE =       1.6046E-04
       ZONE CHG TIP/TOE =       3.2195E-07      ZONE CHG TIP/TOE =       2.4939E-06
            ZONE MIXING =           0.0000           ZONE MIXING =           0.0000

              TOTAL OUT =       2.8993E-02             TOTAL OUT =           0.1643

               IN - OUT =       6.9290E-07              IN - OUT =      -1.0937E-05

    PERCENT DISCREPANCY =           0.00     PERCENT DISCREPANCY =          -0.01



                      VOLUMETRIC SWI ZONE BUDGET FOR ENTIRE MODEL
                     AT END OF TIME STEP  145 IN STRESS PERIOD   1
                                      ZONE     2
  -----------------------------------------------------------------------------------

        CUMULATIVE VOLUMES      L**3       RATES FOR THIS TIME STEP      L**3/T
        ------------------                 ------------------------

              IN:                                      IN:
              ---                                      ---
             BOUNDARIES =       1.1420E-13            BOUNDARIES =       6.2377E-13
          CONSTANT HEAD =       1.5057E-03         CONSTANT HEAD =       5.1228E-03
            ZONE CHANGE =       6.2583E-05           ZONE CHANGE =       1.5695E-04
       ZONE CHG TIP/TOE =       3.2195E-07      ZONE CHG TIP/TOE =       2.4939E-06
            ZONE MIXING =           0.0000           ZONE MIXING =           0.0000

               TOTAL IN =       1.5686E-03              TOTAL IN =       5.2823E-03

             OUT:                                     OUT:
             ----                                     ----
             BOUNDARIES =       1.1376E-13            BOUNDARIES =       6.4951E-13
          CONSTANT HEAD =           0.0000         CONSTANT HEAD =           0.0000
            ZONE CHANGE =       1.5525E-03           ZONE CHANGE =       5.2637E-03
       ZONE CHG TIP/TOE =       1.6677E-05      ZONE CHG TIP/TOE =       7.2793E-06
            ZONE MIXING =           0.0000           ZONE MIXING =           0.0000

              TOTAL OUT =       1.5692E-03             TOTAL OUT =       5.2710E-03

               IN - OUT =      -6.2888E-07              IN - OUT =       1.1282E-05

    PERCENT DISCREPANCY =          -0.04     PERCENT DISCREPANCY =           0.21


 HEAD WILL BE SAVED ON UNIT   51 AT END OF TIME STEP  145, STRESS PERIOD    1
1
  VOLUMETRIC BUDGET FOR ENTIRE MODEL AT END OF TIME STEP  145, STRESS PERIOD   1
  ------------------------------------------------------------------------------

     CUMULATIVE VOLUMES      L**3       RATES FOR THIS TIME STEP      L**3/T
     ------------------                 ------------------------

           IN:                                      IN:
           ---                                      ---
             STORAGE =       6.9222E-05               STORAGE =       1.5662E-05
       CONSTANT HEAD =       2.8858E-02         CONSTANT HEAD =           0.1641
               WELLS =           0.0000                 WELLS =           0.0000
          SWIADDTOCH =           0.0000            SWIADDTOCH =           0.0000

            TOTAL IN =       2.8928E-02              TOTAL IN =           0.1642

          OUT:                                     OUT:
          ----                                     ----
             STORAGE =       6.7054E-10               STORAGE =       3.9387E-09
       CONSTANT HEAD =           0.0000         CONSTANT HEAD =           0.0000
               WELLS =       2.8928E-02                 WELLS =           0.1642
          SWIADDTOCH =       8.4351E-10            SWIADDTOCH =           0.0000

           TOTAL OUT =       2.8928E-02             TOTAL OUT =           0.1642

            IN - OUT =      -1.4901E-08              IN - OUT =       2.9802E-08

 PERCENT DISCREPANCY =          -0.00     PERCENT DISCREPANCY =           0.00






         TIME SUMMARY AT END OF TIME STEP  145 IN STRESS PERIOD    1
                    SECONDS     MINUTES      HOURS       DAYS        YEARS
                    -----------------------------------------------------------
   TIME STEP LENGTH  105.00      1.7500     2.91667E-02 1.21528E-03 3.32726E-06
 STRESS PERIOD TIME  15225.      253.75      4.2292     0.17622     4.82452E-04
         TOTAL TIME  15225.      253.75      4.2292     0.17622     4.82452E-04
1

 SOLVING FOR HEAD 
     2 EXTERNAL ITERATIONS FOR TIME STEP 146 IN STRESS PERIOD    1

 MAXIMUM HEAD CHANGE FOR EACH ITERATION:

     HEAD CHANGE  LAY,ROW,COL      HEAD CHANGE  LAY,ROW,COL  
 ------------------------------------------------------------
    -1.934E-05 (  6,    1, 1000)  -2.021E-07 (  6,    1,  999)



 OUTPUT CONTROL FOR STRESS PERIOD    1   TIME STEP  146
    PRINT BUDGET
    SAVE HEAD FOR ALL LAYERS
 SOLVING FOR ZETA FOR LAYER     6 ZONE     2

     497 UPPER PART EQS.       499 LOWER PART EQS.    BAND WIDTH + 1 =    4
 STRESS PERIOD=  1 TIMESTEP=146 LAYER=  6 ZONE=  2 ACTIVE CELLS=  996 NUMBER OF EQUATIONS=     996
 UBUDSV SAVING "      ZETASRF  1" ON UNIT 55 AT TIME STEP146, STRESS PERIOD    1


                      VOLUMETRIC SWI ZONE BUDGET FOR ENTIRE MODEL
                     AT END OF TIME STEP  146 IN STRESS PERIOD   1
                                      ZONE     1
  -----------------------------------------------------------------------------------

        CUMULATIVE VOLUMES      L**3       RATES FOR THIS TIME STEP      L**3/T
        ------------------                 ------------------------

              IN:                                      IN:
              ---                                      ---
             BOUNDARIES =       2.9464E-08            BOUNDARIES =       1.7061E-07
          CONSTANT HEAD =       2.7546E-02         CONSTANT HEAD =           0.1591
            ZONE CHANGE =       1.6282E-03           ZONE CHANGE =       5.2720E-03
       ZONE CHG TIP/TOE =       1.9634E-05      ZONE CHG TIP/TOE =       2.2002E-05
            ZONE MIXING =           0.0000           ZONE MIXING =           0.0000

               TOTAL IN =       2.9194E-02              TOTAL IN =           0.1643

             OUT:                                     OUT:
             ----                                     ----
             BOUNDARIES =       2.9127E-02            BOUNDARIES =           0.1642
          CONSTANT HEAD =           0.0000         CONSTANT HEAD =           0.0000
            ZONE CHANGE =       6.5738E-05           ZONE CHANGE =       1.8489E-04
       ZONE CHG TIP/TOE =       3.2282E-07      ZONE CHG TIP/TOE =       7.1503E-07
            ZONE MIXING =           0.0000           ZONE MIXING =           0.0000

              TOTAL OUT =       2.9193E-02             TOTAL OUT =           0.1643

               IN - OUT =       6.9849E-07              IN - OUT =       3.9637E-06

    PERCENT DISCREPANCY =           0.00     PERCENT DISCREPANCY =           0.00



                      VOLUMETRIC SWI ZONE BUDGET FOR ENTIRE MODEL
                     AT END OF TIME STEP  146 IN STRESS PERIOD   1
                                      ZONE     2
  -----------------------------------------------------------------------------------

        CUMULATIVE VOLUMES      L**3       RATES FOR THIS TIME STEP      L**3/T
        ------------------                 ------------------------

              IN:                                      IN:
              ---                                      ---
             BOUNDARIES =       1.1503E-13            BOUNDARIES =       6.8442E-13
          CONSTANT HEAD =       1.5119E-03         CONSTANT HEAD =       5.0888E-03
            ZONE CHANGE =       6.2789E-05           ZONE CHANGE =       1.6921E-04
       ZONE CHG TIP/TOE =       3.2282E-07      ZONE CHG TIP/TOE =       7.1503E-07
            ZONE MIXING =           0.0000           ZONE MIXING =           0.0000

               TOTAL IN =       1.5750E-03              TOTAL IN =       5.2587E-03

             OUT:                                     OUT:
             ----                                     ----
             BOUNDARIES =       1.1454E-13            BOUNDARIES =       6.4370E-13
          CONSTANT HEAD =           0.0000         CONSTANT HEAD =           0.0000
            ZONE CHANGE =       1.5589E-03           ZONE CHANGE =       5.2561E-03
       ZONE CHG TIP/TOE =       1.6685E-05      ZONE CHG TIP/TOE =       6.3193E-06
            ZONE MIXING =           0.0000           ZONE MIXING =           0.0000

              TOTAL OUT =       1.5756E-03             TOTAL OUT =       5.2624E-03

               IN - OUT =      -6.3342E-07              IN - OUT =      -3.6340E-06

    PERCENT DISCREPANCY =          -0.04     PERCENT DISCREPANCY =          -0.07


 HEAD WILL BE SAVED ON UNIT   51 AT END OF TIME STEP  146, STRESS PERIOD    1
1
  VOLUMETRIC BUDGET FOR ENTIRE MODEL AT END OF TIME STEP  146, STRESS PERIOD   1
  ------------------------------------------------------------------------------

     CUMULATIVE VOLUMES      L**3       RATES FOR THIS TIME STEP      L**3/T
     ------------------                 ------------------------

           IN:                                      IN:
           ---                                      ---
             STORAGE =       6.9241E-05               STORAGE =       1.5601E-05
       CONSTANT HEAD =       2.9058E-02         CONSTANT HEAD =           0.1641
               WELLS =           0.0000                 WELLS =           0.0000
          SWIADDTOCH =           0.0000            SWIADDTOCH =           0.0000

            TOTAL IN =       2.9127E-02              TOTAL IN =           0.1642

          OUT:                                     OUT:
          ----                                     ----
             STORAGE =       6.7985E-10               STORAGE =       7.6612E-09
       CONSTANT HEAD =           0.0000         CONSTANT HEAD =           0.0000
               WELLS =       2.9127E-02                 WELLS =           0.1642
          SWIADDTOCH =       9.2027E-10            SWIADDTOCH =       6.3166E-08

           TOTAL OUT =       2.9127E-02             TOTAL OUT =           0.1642

            IN - OUT =      -1.3039E-08              IN - OUT =       1.4901E-08

 PERCENT DISCREPANCY =          -0.00     PERCENT DISCREPANCY =           0.00






         TIME SUMMARY AT END OF TIME STEP  146 IN STRESS PERIOD    1
                    SECONDS     MINUTES      HOURS       DAYS        YEARS
                    -----------------------------------------------------------
   TIME STEP LENGTH  105.00      1.7500     2.91667E-02 1.21528E-03 3.32726E-06
 STRESS PERIOD TIME  15330.      255.50      4.2583     0.17743     4.85779E-04
         TOTAL TIME  15330.      255.50      4.2583     0.17743     4.85779E-04
1

 SOLVING FOR HEAD 
     2 EXTERNAL ITERATIONS FOR TIME STEP 147 IN STRESS PERIOD    1

 MAXIMUM HEAD CHANGE FOR EACH ITERATION:

     HEAD CHANGE  LAY,ROW,COL      HEAD CHANGE  LAY,ROW,COL  
 ------------------------------------------------------------
    -1.935E-05 (  6,    1, 1000)  -2.014E-07 (  6,    1,  999)



 OUTPUT CONTROL FOR STRESS PERIOD    1   TIME STEP  147
    PRINT BUDGET
    SAVE HEAD FOR ALL LAYERS
 SOLVING FOR ZETA FOR LAYER     6 ZONE     2

     495 UPPER PART EQS.       496 LOWER PART EQS.    BAND WIDTH + 1 =    3
 STRESS PERIOD=  1 TIMESTEP=147 LAYER=  6 ZONE=  2 ACTIVE CELLS=  991 NUMBER OF EQUATIONS=     991
 UBUDSV SAVING "      ZETASRF  1" ON UNIT 55 AT TIME STEP147, STRESS PERIOD    1


                      VOLUMETRIC SWI ZONE BUDGET FOR ENTIRE MODEL
                     AT END OF TIME STEP  147 IN STRESS PERIOD   1
                                      ZONE     1
  -----------------------------------------------------------------------------------

        CUMULATIVE VOLUMES      L**3       RATES FOR THIS TIME STEP      L**3/T
        ------------------                 ------------------------

              IN:                                      IN:
              ---                                      ---
             BOUNDARIES =       2.9663E-08            BOUNDARIES =       1.6396E-07
          CONSTANT HEAD =       2.7739E-02         CONSTANT HEAD =           0.1591
            ZONE CHANGE =       1.6345E-03           ZONE CHANGE =       5.1855E-03
       ZONE CHG TIP/TOE =       1.9648E-05      ZONE CHG TIP/TOE =       1.1010E-05
            ZONE MIXING =           0.0000           ZONE MIXING =           0.0000

               TOTAL IN =       2.9393E-02              TOTAL IN =           0.1643

             OUT:                                     OUT:
             ----                                     ----
             BOUNDARIES =       2.9327E-02            BOUNDARIES =           0.1642
          CONSTANT HEAD =           0.0000         CONSTANT HEAD =           0.0000
            ZONE CHANGE =       6.5894E-05           ZONE CHANGE =       1.2832E-04
       ZONE CHG TIP/TOE =       3.2579E-07      ZONE CHG TIP/TOE =       2.4440E-06
            ZONE MIXING =           0.0000           ZONE MIXING =           0.0000

              TOTAL OUT =       2.9393E-02             TOTAL OUT =           0.1643

               IN - OUT =       6.9104E-07              IN - OUT =      -4.0978E-06

    PERCENT DISCREPANCY =           0.00     PERCENT DISCREPANCY =          -0.00



                      VOLUMETRIC SWI ZONE BUDGET FOR ENTIRE MODEL
                     AT END OF TIME STEP  147 IN STRESS PERIOD   1
                                      ZONE     2
  -----------------------------------------------------------------------------------

        CUMULATIVE VOLUMES      L**3       RATES FOR THIS TIME STEP      L**3/T
        ------------------                 ------------------------

              IN:                                      IN:
              ---                                      ---
             BOUNDARIES =       1.1582E-13            BOUNDARIES =       6.4835E-13
          CONSTANT HEAD =       1.5180E-03         CONSTANT HEAD =       5.0543E-03
            ZONE CHANGE =       6.2936E-05           ZONE CHANGE =       1.2096E-04
       ZONE CHG TIP/TOE =       3.2579E-07      ZONE CHG TIP/TOE =       2.4440E-06
            ZONE MIXING =           0.0000           ZONE MIXING =           0.0000

               TOTAL IN =       1.5813E-03              TOTAL IN =       5.1777E-03

             OUT:                                     OUT:
             ----                                     ----
             BOUNDARIES =       1.1532E-13            BOUNDARIES =       6.4487E-13
          CONSTANT HEAD =           0.0000         CONSTANT HEAD =           0.0000
            ZONE CHANGE =       1.5652E-03           ZONE CHANGE =       5.1696E-03
       ZONE CHG TIP/TOE =       1.6689E-05      ZONE CHG TIP/TOE =       3.6494E-06
            ZONE MIXING =           0.0000           ZONE MIXING =           0.0000

              TOTAL OUT =       1.5819E-03             TOTAL OUT =       5.1733E-03

               IN - OUT =      -6.2794E-07              IN - OUT =       4.4452E-06

    PERCENT DISCREPANCY =          -0.04     PERCENT DISCREPANCY =           0.09


 HEAD WILL BE SAVED ON UNIT   51 AT END OF TIME STEP  147, STRESS PERIOD    1
1
  VOLUMETRIC BUDGET FOR ENTIRE MODEL AT END OF TIME STEP  147, STRESS PERIOD   1
  ------------------------------------------------------------------------------

     CUMULATIVE VOLUMES      L**3       RATES FOR THIS TIME STEP      L**3/T
     ------------------                 ------------------------

           IN:                                      IN:
           ---                                      ---
             STORAGE =       6.9260E-05               STORAGE =       1.5560E-05
       CONSTANT HEAD =       2.9257E-02         CONSTANT HEAD =           0.1641
               WELLS =           0.0000                 WELLS =           0.0000
          SWIADDTOCH =           0.0000            SWIADDTOCH =           0.0000

            TOTAL IN =       2.9327E-02              TOTAL IN =           0.1642

          OUT:                                     OUT:
          ----                                     ----
             STORAGE =       6.8576E-10               STORAGE =       4.8653E-09
       CONSTANT HEAD =           0.0000         CONSTANT HEAD =           0.0000
               WELLS =       2.9327E-02                 WELLS =           0.1642
          SWIADDTOCH =       9.2027E-10            SWIADDTOCH =           0.0000

           TOTAL OUT =       2.9327E-02             TOTAL OUT =           0.1642

            IN - OUT =      -1.3039E-08              IN - OUT =       2.9802E-08

 PERCENT DISCREPANCY =          -0.00     PERCENT DISCREPANCY =           0.00






         TIME SUMMARY AT END OF TIME STEP  147 IN STRESS PERIOD    1
                    SECONDS     MINUTES      HOURS       DAYS        YEARS
                    -----------------------------------------------------------
   TIME STEP LENGTH  105.00      1.7500     2.91667E-02 1.21528E-03 3.32726E-06
 STRESS PERIOD TIME  15435.      257.25      4.2875     0.17865     4.89106E-04
         TOTAL TIME  15435.      257.25      4.2875     0.17865     4.89106E-04
1

 SOLVING FOR HEAD 
     2 EXTERNAL ITERATIONS FOR TIME STEP 148 IN STRESS PERIOD    1

 MAXIMUM HEAD CHANGE FOR EACH ITERATION:

     HEAD CHANGE  LAY,ROW,COL      HEAD CHANGE  LAY,ROW,COL  
 ------------------------------------------------------------
    -1.934E-05 (  6,    1, 1000)  -2.003E-07 (  6,    1,  999)



 OUTPUT CONTROL FOR STRESS PERIOD    1   TIME STEP  148
    PRINT BUDGET
    SAVE HEAD FOR ALL LAYERS
 SOLVING FOR ZETA FOR LAYER     6 ZONE     2

     497 UPPER PART EQS.       496 LOWER PART EQS.    BAND WIDTH + 1 =    3
 STRESS PERIOD=  1 TIMESTEP=148 LAYER=  6 ZONE=  2 ACTIVE CELLS=  993 NUMBER OF EQUATIONS=     993
 UBUDSV SAVING "      ZETASRF  1" ON UNIT 55 AT TIME STEP148, STRESS PERIOD    1


                      VOLUMETRIC SWI ZONE BUDGET FOR ENTIRE MODEL
                     AT END OF TIME STEP  148 IN STRESS PERIOD   1
                                      ZONE     1
  -----------------------------------------------------------------------------------

        CUMULATIVE VOLUMES      L**3       RATES FOR THIS TIME STEP      L**3/T
        ------------------                 ------------------------

              IN:                                      IN:
              ---                                      ---
             BOUNDARIES =       2.9856E-08            BOUNDARIES =       1.5905E-07
          CONSTANT HEAD =       2.7933E-02         CONSTANT HEAD =           0.1591
            ZONE CHANGE =       1.6409E-03           ZONE CHANGE =       5.2179E-03
       ZONE CHG TIP/TOE =       1.9663E-05      ZONE CHG TIP/TOE =       1.2640E-05
            ZONE MIXING =           0.0000           ZONE MIXING =           0.0000

               TOTAL IN =       2.9593E-02              TOTAL IN =           0.1644

             OUT:                                     OUT:
             ----                                     ----
             BOUNDARIES =       2.9526E-02            BOUNDARIES =           0.1642
          CONSTANT HEAD =           0.0000         CONSTANT HEAD =           0.0000
            ZONE CHANGE =       6.6129E-05           ZONE CHANGE =       1.9386E-04
       ZONE CHG TIP/TOE =       3.2714E-07      ZONE CHG TIP/TOE =       1.1070E-06
            ZONE MIXING =           0.0000           ZONE MIXING =           0.0000

              TOTAL OUT =       2.9593E-02             TOTAL OUT =           0.1644

               IN - OUT =       6.9104E-07              IN - OUT =       7.4506E-08

    PERCENT DISCREPANCY =           0.00     PERCENT DISCREPANCY =           0.00



                      VOLUMETRIC SWI ZONE BUDGET FOR ENTIRE MODEL
                     AT END OF TIME STEP  148 IN STRESS PERIOD   1
                                      ZONE     2
  -----------------------------------------------------------------------------------

        CUMULATIVE VOLUMES      L**3       RATES FOR THIS TIME STEP      L**3/T
        ------------------                 ------------------------

              IN:                                      IN:
              ---                                      ---
             BOUNDARIES =       1.1662E-13            BOUNDARIES =       6.5770E-13
          CONSTANT HEAD =       1.5241E-03         CONSTANT HEAD =       5.0201E-03
            ZONE CHANGE =       6.3159E-05           ZONE CHANGE =       1.8390E-04
       ZONE CHG TIP/TOE =       3.2714E-07      ZONE CHG TIP/TOE =       1.1070E-06
            ZONE MIXING =           0.0000           ZONE MIXING =           0.0000

               TOTAL IN =       1.5876E-03              TOTAL IN =       5.2051E-03

             OUT:                                     OUT:
             ----                                     ----
             BOUNDARIES =       1.1607E-13            BOUNDARIES =       6.1731E-13
          CONSTANT HEAD =           0.0000         CONSTANT HEAD =           0.0000
            ZONE CHANGE =       1.5715E-03           ZONE CHANGE =       5.2021E-03
       ZONE CHG TIP/TOE =       1.6692E-05      ZONE CHG TIP/TOE =       2.6763E-06
            ZONE MIXING =           0.0000           ZONE MIXING =           0.0000

              TOTAL OUT =       1.5882E-03             TOTAL OUT =       5.2048E-03

               IN - OUT =      -6.2771E-07              IN - OUT =       2.8359E-07

    PERCENT DISCREPANCY =          -0.04     PERCENT DISCREPANCY =           0.01


 HEAD WILL BE SAVED ON UNIT   51 AT END OF TIME STEP  148, STRESS PERIOD    1
1
  VOLUMETRIC BUDGET FOR ENTIRE MODEL AT END OF TIME STEP  148, STRESS PERIOD   1
  ------------------------------------------------------------------------------

     CUMULATIVE VOLUMES      L**3       RATES FOR THIS TIME STEP      L**3/T
     ------------------                 ------------------------

           IN:                                      IN:
           ---                                      ---
             STORAGE =       6.9279E-05               STORAGE =       1.5472E-05
       CONSTANT HEAD =       2.9457E-02         CONSTANT HEAD =           0.1641
               WELLS =           0.0000                 WELLS =           0.0000
          SWIADDTOCH =           0.0000            SWIADDTOCH =           0.0000

            TOTAL IN =       2.9526E-02              TOTAL IN =           0.1642

          OUT:                                     OUT:
          ----                                     ----
             STORAGE =       6.9054E-10               STORAGE =       3.9323E-09
       CONSTANT HEAD =           0.0000         CONSTANT HEAD =           0.0000
               WELLS =       2.9526E-02                 WELLS =           0.1642
          SWIADDTOCH =       9.2027E-10            SWIADDTOCH =           0.0000

           TOTAL OUT =       2.9526E-02             TOTAL OUT =           0.1642

            IN - OUT =      -1.3039E-08              IN - OUT =       5.9605E-08

 PERCENT DISCREPANCY =          -0.00     PERCENT DISCREPANCY =           0.00






         TIME SUMMARY AT END OF TIME STEP  148 IN STRESS PERIOD    1
                    SECONDS     MINUTES      HOURS       DAYS        YEARS
                    -----------------------------------------------------------
   TIME STEP LENGTH  105.00      1.7500     2.91667E-02 1.21528E-03 3.32726E-06
 STRESS PERIOD TIME  15540.      259.00      4.3167     0.17986     4.92433E-04
         TOTAL TIME  15540.      259.00      4.3167     0.17986     4.92433E-04
1

 SOLVING FOR HEAD 
     2 EXTERNAL ITERATIONS FOR TIME STEP 149 IN STRESS PERIOD    1

 MAXIMUM HEAD CHANGE FOR EACH ITERATION:

     HEAD CHANGE  LAY,ROW,COL      HEAD CHANGE  LAY,ROW,COL  
 ------------------------------------------------------------
    -1.936E-05 (  6,    1, 1000)  -2.000E-07 (  6,    1,  999)



 OUTPUT CONTROL FOR STRESS PERIOD    1   TIME STEP  149
    PRINT BUDGET
    SAVE HEAD FOR ALL LAYERS
 SOLVING FOR ZETA FOR LAYER     6 ZONE     2

     495 UPPER PART EQS.       497 LOWER PART EQS.    BAND WIDTH + 1 =    3
 STRESS PERIOD=  1 TIMESTEP=149 LAYER=  6 ZONE=  2 ACTIVE CELLS=  992 NUMBER OF EQUATIONS=     992
 UBUDSV SAVING "      ZETASRF  1" ON UNIT 55 AT TIME STEP149, STRESS PERIOD    1


                      VOLUMETRIC SWI ZONE BUDGET FOR ENTIRE MODEL
                     AT END OF TIME STEP  149 IN STRESS PERIOD   1
                                      ZONE     1
  -----------------------------------------------------------------------------------

        CUMULATIVE VOLUMES      L**3       RATES FOR THIS TIME STEP      L**3/T
        ------------------                 ------------------------

              IN:                                      IN:
              ---                                      ---
             BOUNDARIES =       3.0053E-08            BOUNDARIES =       1.6196E-07
          CONSTANT HEAD =       2.8126E-02         CONSTANT HEAD =           0.1592
            ZONE CHANGE =       1.6472E-03           ZONE CHANGE =       5.2316E-03
       ZONE CHG TIP/TOE =       1.9688E-05      ZONE CHG TIP/TOE =       2.0901E-05
            ZONE MIXING =           0.0000           ZONE MIXING =           0.0000

               TOTAL IN =       2.9793E-02              TOTAL IN =           0.1644

             OUT:                                     OUT:
             ----                                     ----
             BOUNDARIES =       2.9726E-02            BOUNDARIES =           0.1642
          CONSTANT HEAD =           0.0000         CONSTANT HEAD =           0.0000
            ZONE CHANGE =       6.6424E-05           ZONE CHANGE =       2.4260E-04
       ZONE CHG TIP/TOE =       3.2935E-07      ZONE CHG TIP/TOE =       1.8189E-06
            ZONE MIXING =           0.0000           ZONE MIXING =           0.0000

              TOTAL OUT =       2.9792E-02             TOTAL OUT =           0.1644

               IN - OUT =       7.0222E-07              IN - OUT =       6.7353E-06

    PERCENT DISCREPANCY =           0.00     PERCENT DISCREPANCY =           0.00



                      VOLUMETRIC SWI ZONE BUDGET FOR ENTIRE MODEL
                     AT END OF TIME STEP  149 IN STRESS PERIOD   1
                                      ZONE     2
  -----------------------------------------------------------------------------------

        CUMULATIVE VOLUMES      L**3       RATES FOR THIS TIME STEP      L**3/T
        ------------------                 ------------------------

              IN:                                      IN:
              ---                                      ---
             BOUNDARIES =       1.1736E-13            BOUNDARIES =       6.1045E-13
          CONSTANT HEAD =       1.5302E-03         CONSTANT HEAD =       4.9860E-03
            ZONE CHANGE =       6.3431E-05           ZONE CHANGE =       2.2403E-04
       ZONE CHG TIP/TOE =       3.2935E-07      ZONE CHG TIP/TOE =       1.8189E-06
            ZONE MIXING =           0.0000           ZONE MIXING =           0.0000

               TOTAL IN =       1.5939E-03              TOTAL IN =       5.2118E-03

             OUT:                                     OUT:
             ----                                     ----
             BOUNDARIES =       1.1687E-13            BOUNDARIES =       6.5262E-13
          CONSTANT HEAD =           0.0000         CONSTANT HEAD =           0.0000
            ZONE CHANGE =       1.5779E-03           ZONE CHANGE =       5.2159E-03
       ZONE CHG TIP/TOE =       1.6695E-05      ZONE CHG TIP/TOE =       2.3299E-06
            ZONE MIXING =           0.0000           ZONE MIXING =           0.0000

              TOTAL OUT =       1.5946E-03             TOTAL OUT =       5.2182E-03

               IN - OUT =      -6.3563E-07              IN - OUT =      -6.3875E-06

    PERCENT DISCREPANCY =          -0.04     PERCENT DISCREPANCY =          -0.12


 HEAD WILL BE SAVED ON UNIT   51 AT END OF TIME STEP  149, STRESS PERIOD    1
1
  VOLUMETRIC BUDGET FOR ENTIRE MODEL AT END OF TIME STEP  149, STRESS PERIOD   1
  ------------------------------------------------------------------------------

     CUMULATIVE VOLUMES      L**3       RATES FOR THIS TIME STEP      L**3/T
     ------------------                 ------------------------

           IN:                                      IN:
           ---                                      ---
             STORAGE =       6.9298E-05               STORAGE =       1.5407E-05
       CONSTANT HEAD =       2.9656E-02         CONSTANT HEAD =           0.1641
               WELLS =           0.0000                 WELLS =           0.0000
          SWIADDTOCH =           0.0000            SWIADDTOCH =           0.0000

            TOTAL IN =       2.9726E-02              TOTAL IN =           0.1642

          OUT:                                     OUT:
          ----                                     ----
             STORAGE =       6.9871E-10               STORAGE =       6.7238E-09
       CONSTANT HEAD =           0.0000         CONSTANT HEAD =           0.0000
               WELLS =       2.9726E-02                 WELLS =           0.1642
          SWIADDTOCH =       9.2027E-10            SWIADDTOCH =           0.0000

           TOTAL OUT =       2.9726E-02             TOTAL OUT =           0.1642

            IN - OUT =      -1.3039E-08              IN - OUT =       4.4703E-08

 PERCENT DISCREPANCY =          -0.00     PERCENT DISCREPANCY =           0.00






         TIME SUMMARY AT END OF TIME STEP  149 IN STRESS PERIOD    1
                    SECONDS     MINUTES      HOURS       DAYS        YEARS
                    -----------------------------------------------------------
   TIME STEP LENGTH  105.00      1.7500     2.91667E-02 1.21528E-03 3.32726E-06
 STRESS PERIOD TIME  15645.      260.75      4.3458     0.18108     4.95761E-04
         TOTAL TIME  15645.      260.75      4.3458     0.18108     4.95761E-04
1

 SOLVING FOR HEAD 
     2 EXTERNAL ITERATIONS FOR TIME STEP 150 IN STRESS PERIOD    1

 MAXIMUM HEAD CHANGE FOR EACH ITERATION:

     HEAD CHANGE  LAY,ROW,COL      HEAD CHANGE  LAY,ROW,COL  
 ------------------------------------------------------------
    -1.937E-05 (  6,    1, 1000)  -1.993E-07 (  6,    1,  999)



 OUTPUT CONTROL FOR STRESS PERIOD    1   TIME STEP  150
    PRINT BUDGET
    SAVE HEAD FOR ALL LAYERS
 SOLVING FOR ZETA FOR LAYER     6 ZONE     2

     496 UPPER PART EQS.       496 LOWER PART EQS.    BAND WIDTH + 1 =    2
 STRESS PERIOD=  1 TIMESTEP=150 LAYER=  6 ZONE=  2 ACTIVE CELLS=  992 NUMBER OF EQUATIONS=     992
 UBUDSV SAVING "      ZETASRF  1" ON UNIT 55 AT TIME STEP150, STRESS PERIOD    1


                      VOLUMETRIC SWI ZONE BUDGET FOR ENTIRE MODEL
                     AT END OF TIME STEP  150 IN STRESS PERIOD   1
                                      ZONE     1
  -----------------------------------------------------------------------------------

        CUMULATIVE VOLUMES      L**3       RATES FOR THIS TIME STEP      L**3/T
        ------------------                 ------------------------

              IN:                                      IN:
              ---                                      ---
             BOUNDARIES =       3.0258E-08            BOUNDARIES =       1.6883E-07
          CONSTANT HEAD =       2.8320E-02         CONSTANT HEAD =           0.1592
            ZONE CHANGE =       1.6534E-03           ZONE CHANGE =       5.0983E-03
       ZONE CHG TIP/TOE =       1.9716E-05      ZONE CHG TIP/TOE =       2.2795E-05
            ZONE MIXING =           0.0000           ZONE MIXING =           0.0000

               TOTAL IN =       2.9993E-02              TOTAL IN =           0.1643

             OUT:                                     OUT:
             ----                                     ----
             BOUNDARIES =       2.9925E-02            BOUNDARIES =           0.1642
          CONSTANT HEAD =           0.0000         CONSTANT HEAD =           0.0000
            ZONE CHANGE =       6.6598E-05           ZONE CHANGE =       1.4307E-04
       ZONE CHG TIP/TOE =       3.3019E-07      ZONE CHG TIP/TOE =       6.9154E-07
            ZONE MIXING =           0.0000           ZONE MIXING =           0.0000

              TOTAL OUT =       2.9992E-02             TOTAL OUT =           0.1643

               IN - OUT =       7.1339E-07              IN - OUT =       1.0133E-05

    PERCENT DISCREPANCY =           0.00     PERCENT DISCREPANCY =           0.01



                      VOLUMETRIC SWI ZONE BUDGET FOR ENTIRE MODEL
                     AT END OF TIME STEP  150 IN STRESS PERIOD   1
                                      ZONE     2
  -----------------------------------------------------------------------------------

        CUMULATIVE VOLUMES      L**3       RATES FOR THIS TIME STEP      L**3/T
        ------------------                 ------------------------

              IN:                                      IN:
              ---                                      ---
             BOUNDARIES =       1.1811E-13            BOUNDARIES =       6.1654E-13
          CONSTANT HEAD =       1.5362E-03         CONSTANT HEAD =       4.9520E-03
            ZONE CHANGE =       6.3587E-05           ZONE CHANGE =       1.2790E-04
       ZONE CHG TIP/TOE =       3.3019E-07      ZONE CHG TIP/TOE =       6.9154E-07
            ZONE MIXING =           0.0000           ZONE MIXING =           0.0000

               TOTAL IN =       1.6001E-03              TOTAL IN =       5.0805E-03

             OUT:                                     OUT:
             ----                                     ----
             BOUNDARIES =       1.1766E-13            BOUNDARIES =       6.5793E-13
          CONSTANT HEAD =           0.0000         CONSTANT HEAD =           0.0000
            ZONE CHANGE =       1.5840E-03           ZONE CHANGE =       5.0827E-03
       ZONE CHG TIP/TOE =       1.6705E-05      ZONE CHG TIP/TOE =       7.6189E-06
            ZONE MIXING =           0.0000           ZONE MIXING =           0.0000

              TOTAL OUT =       1.6008E-03             TOTAL OUT =       5.0903E-03

               IN - OUT =      -6.4750E-07              IN - OUT =      -9.7738E-06

    PERCENT DISCREPANCY =          -0.04     PERCENT DISCREPANCY =          -0.19


 HEAD WILL BE SAVED ON UNIT   51 AT END OF TIME STEP  150, STRESS PERIOD    1
1
  VOLUMETRIC BUDGET FOR ENTIRE MODEL AT END OF TIME STEP  150, STRESS PERIOD   1
  ------------------------------------------------------------------------------

     CUMULATIVE VOLUMES      L**3       RATES FOR THIS TIME STEP      L**3/T
     ------------------                 ------------------------

           IN:                                      IN:
           ---                                      ---
             STORAGE =       6.9316E-05               STORAGE =       1.5337E-05
       CONSTANT HEAD =       2.9856E-02         CONSTANT HEAD =           0.1641
               WELLS =           0.0000                 WELLS =           0.0000
          SWIADDTOCH =           0.0000            SWIADDTOCH =           0.0000

            TOTAL IN =       2.9925E-02              TOTAL IN =           0.1642

          OUT:                                     OUT:
          ----                                     ----
             STORAGE =       7.0575E-10               STORAGE =       5.7909E-09
       CONSTANT HEAD =           0.0000         CONSTANT HEAD =           0.0000
               WELLS =       2.9925E-02                 WELLS =           0.1642
          SWIADDTOCH =       9.9872E-10            SWIADDTOCH =       6.4551E-08

           TOTAL OUT =       2.9925E-02             TOTAL OUT =           0.1642

            IN - OUT =      -1.4901E-08              IN - OUT =       2.9802E-08

 PERCENT DISCREPANCY =          -0.00     PERCENT DISCREPANCY =           0.00






         TIME SUMMARY AT END OF TIME STEP  150 IN STRESS PERIOD    1
                    SECONDS     MINUTES      HOURS       DAYS        YEARS
                    -----------------------------------------------------------
   TIME STEP LENGTH  105.00      1.7500     2.91667E-02 1.21528E-03 3.32726E-06
 STRESS PERIOD TIME  15750.      262.50      4.3750     0.18229     4.99088E-04
         TOTAL TIME  15750.      262.50      4.3750     0.18229     4.99088E-04
1

 SOLVING FOR HEAD 
     2 EXTERNAL ITERATIONS FOR TIME STEP 151 IN STRESS PERIOD    1

 MAXIMUM HEAD CHANGE FOR EACH ITERATION:

     HEAD CHANGE  LAY,ROW,COL      HEAD CHANGE  LAY,ROW,COL  
 ------------------------------------------------------------
    -1.939E-05 (  6,    1, 1000)  -1.987E-07 (  6,    1,  999)



 OUTPUT CONTROL FOR STRESS PERIOD    1   TIME STEP  151
    PRINT BUDGET
    SAVE HEAD FOR ALL LAYERS
 SOLVING FOR ZETA FOR LAYER     6 ZONE     2

     495 UPPER PART EQS.       498 LOWER PART EQS.    BAND WIDTH + 1 =    4
 STRESS PERIOD=  1 TIMESTEP=151 LAYER=  6 ZONE=  2 ACTIVE CELLS=  993 NUMBER OF EQUATIONS=     993
 UBUDSV SAVING "      ZETASRF  1" ON UNIT 55 AT TIME STEP151, STRESS PERIOD    1


                      VOLUMETRIC SWI ZONE BUDGET FOR ENTIRE MODEL
                     AT END OF TIME STEP  151 IN STRESS PERIOD   1
                                      ZONE     1
  -----------------------------------------------------------------------------------

        CUMULATIVE VOLUMES      L**3       RATES FOR THIS TIME STEP      L**3/T
        ------------------                 ------------------------

              IN:                                      IN:
              ---                                      ---
             BOUNDARIES =       3.0450E-08            BOUNDARIES =       1.5778E-07
          CONSTANT HEAD =       2.8513E-02         CONSTANT HEAD =           0.1592
            ZONE CHANGE =       1.6601E-03           ZONE CHANGE =       5.4988E-03
       ZONE CHG TIP/TOE =       1.9749E-05      ZONE CHG TIP/TOE =       2.6985E-05
            ZONE MIXING =           0.0000           ZONE MIXING =           0.0000

               TOTAL IN =       3.0193E-02              TOTAL IN =           0.1648

             OUT:                                     OUT:
             ----                                     ----
             BOUNDARIES =       3.0125E-02            BOUNDARIES =           0.1642
          CONSTANT HEAD =           0.0000         CONSTANT HEAD =           0.0000
            ZONE CHANGE =       6.7296E-05           ZONE CHANGE =       5.7401E-04
       ZONE CHG TIP/TOE =       3.3112E-07      ZONE CHG TIP/TOE =       7.6455E-07
            ZONE MIXING =           0.0000           ZONE MIXING =           0.0000

              TOTAL OUT =       3.0192E-02             TOTAL OUT =           0.1647

               IN - OUT =       7.3574E-07              IN - OUT =       1.7643E-05

    PERCENT DISCREPANCY =           0.00     PERCENT DISCREPANCY =           0.01



                      VOLUMETRIC SWI ZONE BUDGET FOR ENTIRE MODEL
                     AT END OF TIME STEP  151 IN STRESS PERIOD   1
                                      ZONE     2
  -----------------------------------------------------------------------------------

        CUMULATIVE VOLUMES      L**3       RATES FOR THIS TIME STEP      L**3/T
        ------------------                 ------------------------

              IN:                                      IN:
              ---                                      ---
             BOUNDARIES =       1.1892E-13            BOUNDARIES =       6.6498E-13
          CONSTANT HEAD =       1.5422E-03         CONSTANT HEAD =       4.9181E-03
            ZONE CHANGE =       6.4258E-05           ZONE CHANGE =       5.5224E-04
       ZONE CHG TIP/TOE =       3.3112E-07      ZONE CHG TIP/TOE =       7.6455E-07
            ZONE MIXING =           0.0000           ZONE MIXING =           0.0000

               TOTAL IN =       1.6068E-03              TOTAL IN =       5.4711E-03

             OUT:                                     OUT:
             ----                                     ----
             BOUNDARIES =       1.1839E-13            BOUNDARIES =       5.9646E-13
          CONSTANT HEAD =           0.0000         CONSTANT HEAD =           0.0000
            ZONE CHANGE =       1.5907E-03           ZONE CHANGE =       5.4832E-03
       ZONE CHG TIP/TOE =       1.6711E-05      ZONE CHG TIP/TOE =       5.2127E-06
            ZONE MIXING =           0.0000           ZONE MIXING =           0.0000

              TOTAL OUT =       1.6074E-03             TOTAL OUT =       5.4884E-03

               IN - OUT =      -6.6857E-07              IN - OUT =      -1.7302E-05

    PERCENT DISCREPANCY =          -0.04     PERCENT DISCREPANCY =          -0.32


 HEAD WILL BE SAVED ON UNIT   51 AT END OF TIME STEP  151, STRESS PERIOD    1
1
  VOLUMETRIC BUDGET FOR ENTIRE MODEL AT END OF TIME STEP  151, STRESS PERIOD   1
  ------------------------------------------------------------------------------

     CUMULATIVE VOLUMES      L**3       RATES FOR THIS TIME STEP      L**3/T
     ------------------                 ------------------------

           IN:                                      IN:
           ---                                      ---
             STORAGE =       6.9335E-05               STORAGE =       1.5291E-05
       CONSTANT HEAD =       3.0055E-02         CONSTANT HEAD =           0.1641
               WELLS =           0.0000                 WELLS =           0.0000
          SWIADDTOCH =           0.0000            SWIADDTOCH =           0.0000

            TOTAL IN =       3.0125E-02              TOTAL IN =           0.1642

          OUT:                                     OUT:
          ----                                     ----
             STORAGE =       7.1052E-10               STORAGE =       3.9259E-09
       CONSTANT HEAD =           0.0000         CONSTANT HEAD =           0.0000
               WELLS =       3.0125E-02                 WELLS =           0.1642
          SWIADDTOCH =       9.9872E-10            SWIADDTOCH =           0.0000

           TOTAL OUT =       3.0125E-02             TOTAL OUT =           0.1642

            IN - OUT =      -1.4901E-08              IN - OUT =       4.4703E-08

 PERCENT DISCREPANCY =          -0.00     PERCENT DISCREPANCY =           0.00






         TIME SUMMARY AT END OF TIME STEP  151 IN STRESS PERIOD    1
                    SECONDS     MINUTES      HOURS       DAYS        YEARS
                    -----------------------------------------------------------
   TIME STEP LENGTH  105.00      1.7500     2.91667E-02 1.21528E-03 3.32726E-06
 STRESS PERIOD TIME  15855.      264.25      4.4042     0.18351     5.02415E-04
         TOTAL TIME  15855.      264.25      4.4042     0.18351     5.02415E-04
1

 SOLVING FOR HEAD 
     2 EXTERNAL ITERATIONS FOR TIME STEP 152 IN STRESS PERIOD    1

 MAXIMUM HEAD CHANGE FOR EACH ITERATION:

     HEAD CHANGE  LAY,ROW,COL      HEAD CHANGE  LAY,ROW,COL  
 ------------------------------------------------------------
    -1.941E-05 (  6,    1, 1000)  -1.983E-07 (  6,    1,  999)



 OUTPUT CONTROL FOR STRESS PERIOD    1   TIME STEP  152
    PRINT BUDGET
    SAVE HEAD FOR ALL LAYERS
 SOLVING FOR ZETA FOR LAYER     6 ZONE     2

     494 UPPER PART EQS.       495 LOWER PART EQS.    BAND WIDTH + 1 =    2
 STRESS PERIOD=  1 TIMESTEP=152 LAYER=  6 ZONE=  2 ACTIVE CELLS=  989 NUMBER OF EQUATIONS=     989
 UBUDSV SAVING "      ZETASRF  1" ON UNIT 55 AT TIME STEP152, STRESS PERIOD    1


                      VOLUMETRIC SWI ZONE BUDGET FOR ENTIRE MODEL
                     AT END OF TIME STEP  152 IN STRESS PERIOD   1
                                      ZONE     1
  -----------------------------------------------------------------------------------

        CUMULATIVE VOLUMES      L**3       RATES FOR THIS TIME STEP      L**3/T
        ------------------                 ------------------------

              IN:                                      IN:
              ---                                      ---
             BOUNDARIES =       3.0639E-08            BOUNDARIES =       1.5587E-07
          CONSTANT HEAD =       2.8707E-02         CONSTANT HEAD =           0.1593
            ZONE CHANGE =       1.6667E-03           ZONE CHANGE =       5.4244E-03
       ZONE CHG TIP/TOE =       1.9786E-05      ZONE CHG TIP/TOE =       3.0423E-05
            ZONE MIXING =           0.0000           ZONE MIXING =           0.0000

               TOTAL IN =       3.0393E-02              TOTAL IN =           0.1647

             OUT:                                     OUT:
             ----                                     ----
             BOUNDARIES =       3.0324E-02            BOUNDARIES =           0.1642
          CONSTANT HEAD =           0.0000         CONSTANT HEAD =           0.0000
            ZONE CHANGE =       6.7952E-05           ZONE CHANGE =       5.3967E-04
       ZONE CHG TIP/TOE =       3.3326E-07      ZONE CHG TIP/TOE =       1.7577E-06
            ZONE MIXING =           0.0000           ZONE MIXING =           0.0000

              TOTAL OUT =       3.0392E-02             TOTAL OUT =           0.1647

               IN - OUT =       7.5065E-07              IN - OUT =       1.2934E-05

    PERCENT DISCREPANCY =           0.00     PERCENT DISCREPANCY =           0.01



                      VOLUMETRIC SWI ZONE BUDGET FOR ENTIRE MODEL
                     AT END OF TIME STEP  152 IN STRESS PERIOD   1
                                      ZONE     2
  -----------------------------------------------------------------------------------

        CUMULATIVE VOLUMES      L**3       RATES FOR THIS TIME STEP      L**3/T
        ------------------                 ------------------------

              IN:                                      IN:
              ---                                      ---
             BOUNDARIES =       1.1963E-13            BOUNDARIES =       5.8645E-13
          CONSTANT HEAD =       1.5481E-03         CONSTANT HEAD =       4.8853E-03
            ZONE CHANGE =       6.4890E-05           ZONE CHANGE =       5.1979E-04
       ZONE CHG TIP/TOE =       3.3326E-07      ZONE CHG TIP/TOE =       1.7577E-06
            ZONE MIXING =           0.0000           ZONE MIXING =           0.0000

               TOTAL IN =       1.6133E-03              TOTAL IN =       5.4069E-03

             OUT:                                     OUT:
             ----                                     ----
             BOUNDARIES =       1.1926E-13            BOUNDARIES =       7.1287E-13
          CONSTANT HEAD =           0.0000         CONSTANT HEAD =           0.0000
            ZONE CHANGE =       1.5973E-03           ZONE CHANGE =       5.4089E-03
       ZONE CHG TIP/TOE =       1.6724E-05      ZONE CHG TIP/TOE =       1.0544E-05
            ZONE MIXING =           0.0000           ZONE MIXING =           0.0000

              TOTAL OUT =       1.6140E-03             TOTAL OUT =       5.4194E-03

               IN - OUT =      -6.8371E-07              IN - OUT =      -1.2548E-05

    PERCENT DISCREPANCY =          -0.04     PERCENT DISCREPANCY =          -0.23


 HEAD WILL BE SAVED ON UNIT   51 AT END OF TIME STEP  152, STRESS PERIOD    1
1
  VOLUMETRIC BUDGET FOR ENTIRE MODEL AT END OF TIME STEP  152, STRESS PERIOD   1
  ------------------------------------------------------------------------------

     CUMULATIVE VOLUMES      L**3       RATES FOR THIS TIME STEP      L**3/T
     ------------------                 ------------------------

           IN:                                      IN:
           ---                                      ---
             STORAGE =       6.9353E-05               STORAGE =       1.5237E-05
       CONSTANT HEAD =       3.0255E-02         CONSTANT HEAD =           0.1641
               WELLS =           0.0000                 WELLS =           0.0000
          SWIADDTOCH =           0.0000            SWIADDTOCH =           0.0000

            TOTAL IN =       3.0324E-02              TOTAL IN =           0.1642

          OUT:                                     OUT:
          ----                                     ----
             STORAGE =       7.1756E-10               STORAGE =       5.7907E-09
       CONSTANT HEAD =           0.0000         CONSTANT HEAD =           0.0000
               WELLS =       3.0324E-02                 WELLS =           0.1642
          SWIADDTOCH =       9.9872E-10            SWIADDTOCH =           0.0000

           TOTAL OUT =       3.0324E-02             TOTAL OUT =           0.1642

            IN - OUT =      -1.4901E-08              IN - OUT =       1.0431E-07

 PERCENT DISCREPANCY =          -0.00     PERCENT DISCREPANCY =           0.00






         TIME SUMMARY AT END OF TIME STEP  152 IN STRESS PERIOD    1
                    SECONDS     MINUTES      HOURS       DAYS        YEARS
                    -----------------------------------------------------------
   TIME STEP LENGTH  105.00      1.7500     2.91667E-02 1.21528E-03 3.32726E-06
 STRESS PERIOD TIME  15960.      266.00      4.4333     0.18472     5.05743E-04
         TOTAL TIME  15960.      266.00      4.4333     0.18472     5.05743E-04
1

 SOLVING FOR HEAD 
     2 EXTERNAL ITERATIONS FOR TIME STEP 153 IN STRESS PERIOD    1

 MAXIMUM HEAD CHANGE FOR EACH ITERATION:

     HEAD CHANGE  LAY,ROW,COL      HEAD CHANGE  LAY,ROW,COL  
 ------------------------------------------------------------
    -1.942E-05 (  6,    1, 1000)  -1.977E-07 (  6,    1,  999)



 OUTPUT CONTROL FOR STRESS PERIOD    1   TIME STEP  153
    PRINT BUDGET
    SAVE HEAD FOR ALL LAYERS
 SOLVING FOR ZETA FOR LAYER     6 ZONE     2

     496 UPPER PART EQS.       495 LOWER PART EQS.    BAND WIDTH + 1 =    3
 STRESS PERIOD=  1 TIMESTEP=153 LAYER=  6 ZONE=  2 ACTIVE CELLS=  991 NUMBER OF EQUATIONS=     991
 UBUDSV SAVING "      ZETASRF  1" ON UNIT 55 AT TIME STEP153, STRESS PERIOD    1


                      VOLUMETRIC SWI ZONE BUDGET FOR ENTIRE MODEL
                     AT END OF TIME STEP  153 IN STRESS PERIOD   1
                                      ZONE     1
  -----------------------------------------------------------------------------------

        CUMULATIVE VOLUMES      L**3       RATES FOR THIS TIME STEP      L**3/T
        ------------------                 ------------------------

              IN:                                      IN:
              ---                                      ---
             BOUNDARIES =       3.0848E-08            BOUNDARIES =       1.7177E-07
          CONSTANT HEAD =       2.8900E-02         CONSTANT HEAD =           0.1593
            ZONE CHANGE =       1.6731E-03           ZONE CHANGE =       5.2644E-03
       ZONE CHG TIP/TOE =       1.9827E-05      ZONE CHG TIP/TOE =       3.3925E-05
            ZONE MIXING =           0.0000           ZONE MIXING =           0.0000

               TOTAL IN =       3.0593E-02              TOTAL IN =           0.1646

             OUT:                                     OUT:
             ----                                     ----
             BOUNDARIES =       3.0524E-02            BOUNDARIES =           0.1642
          CONSTANT HEAD =           0.0000         CONSTANT HEAD =           0.0000
            ZONE CHANGE =       6.8452E-05           ZONE CHANGE =       4.1161E-04
       ZONE CHG TIP/TOE =       3.3521E-07      ZONE CHG TIP/TOE =       1.6107E-06
            ZONE MIXING =           0.0000           ZONE MIXING =           0.0000

              TOTAL OUT =       3.0592E-02             TOTAL OUT =           0.1646

               IN - OUT =       7.7300E-07              IN - OUT =       1.6153E-05

    PERCENT DISCREPANCY =           0.00     PERCENT DISCREPANCY =           0.01



                      VOLUMETRIC SWI ZONE BUDGET FOR ENTIRE MODEL
                     AT END OF TIME STEP  153 IN STRESS PERIOD   1
                                      ZONE     2
  -----------------------------------------------------------------------------------

        CUMULATIVE VOLUMES      L**3       RATES FOR THIS TIME STEP      L**3/T
        ------------------                 ------------------------

              IN:                                      IN:
              ---                                      ---
             BOUNDARIES =       1.2045E-13            BOUNDARIES =       6.7678E-13
          CONSTANT HEAD =       1.5540E-03         CONSTANT HEAD =       4.8539E-03
            ZONE CHANGE =       6.5362E-05           ZONE CHANGE =       3.8889E-04
       ZONE CHG TIP/TOE =       3.3521E-07      ZONE CHG TIP/TOE =       1.6107E-06
            ZONE MIXING =           0.0000           ZONE MIXING =           0.0000

               TOTAL IN =       1.6197E-03              TOTAL IN =       5.2444E-03

             OUT:                                     OUT:
             ----                                     ----
             BOUNDARIES =       1.2005E-13            BOUNDARIES =       6.4987E-13
          CONSTANT HEAD =           0.0000         CONSTANT HEAD =           0.0000
            ZONE CHANGE =       1.6037E-03           ZONE CHANGE =       5.2489E-03
       ZONE CHG TIP/TOE =       1.6737E-05      ZONE CHG TIP/TOE =       1.1200E-05
            ZONE MIXING =           0.0000           ZONE MIXING =           0.0000

              TOTAL OUT =       1.6204E-03             TOTAL OUT =       5.2601E-03

               IN - OUT =      -7.0292E-07              IN - OUT =      -1.5757E-05

    PERCENT DISCREPANCY =          -0.04     PERCENT DISCREPANCY =          -0.30


 HEAD WILL BE SAVED ON UNIT   51 AT END OF TIME STEP  153, STRESS PERIOD    1
1
  VOLUMETRIC BUDGET FOR ENTIRE MODEL AT END OF TIME STEP  153, STRESS PERIOD   1
  ------------------------------------------------------------------------------

     CUMULATIVE VOLUMES      L**3       RATES FOR THIS TIME STEP      L**3/T
     ------------------                 ------------------------

           IN:                                      IN:
           ---                                      ---
             STORAGE =       6.9372E-05               STORAGE =       1.5176E-05
       CONSTANT HEAD =       3.0454E-02         CONSTANT HEAD =           0.1641
               WELLS =           0.0000                 WELLS =           0.0000
          SWIADDTOCH =           0.0000            SWIADDTOCH =           0.0000

            TOTAL IN =       3.0524E-02              TOTAL IN =           0.1642

          OUT:                                     OUT:
          ----                                     ----
             STORAGE =       7.2346E-10               STORAGE =       4.8587E-09
       CONSTANT HEAD =           0.0000         CONSTANT HEAD =           0.0000
               WELLS =       3.0524E-02                 WELLS =           0.1642
          SWIADDTOCH =       9.9872E-10            SWIADDTOCH =           0.0000

           TOTAL OUT =       3.0524E-02             TOTAL OUT =           0.1642

            IN - OUT =      -1.4901E-08              IN - OUT =       7.4506E-08

 PERCENT DISCREPANCY =          -0.00     PERCENT DISCREPANCY =           0.00






         TIME SUMMARY AT END OF TIME STEP  153 IN STRESS PERIOD    1
                    SECONDS     MINUTES      HOURS       DAYS        YEARS
                    -----------------------------------------------------------
   TIME STEP LENGTH  105.00      1.7500     2.91667E-02 1.21528E-03 3.32726E-06
 STRESS PERIOD TIME  16065.      267.75      4.4625     0.18594     5.09070E-04
         TOTAL TIME  16065.      267.75      4.4625     0.18594     5.09070E-04
1

 SOLVING FOR HEAD 
     2 EXTERNAL ITERATIONS FOR TIME STEP 154 IN STRESS PERIOD    1

 MAXIMUM HEAD CHANGE FOR EACH ITERATION:

     HEAD CHANGE  LAY,ROW,COL      HEAD CHANGE  LAY,ROW,COL  
 ------------------------------------------------------------
    -1.943E-05 (  6,    1, 1000)  -1.971E-07 (  6,    1,  999)



 OUTPUT CONTROL FOR STRESS PERIOD    1   TIME STEP  154
    PRINT BUDGET
    SAVE HEAD FOR ALL LAYERS
 SOLVING FOR ZETA FOR LAYER     6 ZONE     2

     493 UPPER PART EQS.       496 LOWER PART EQS.    BAND WIDTH + 1 =    2
 STRESS PERIOD=  1 TIMESTEP=154 LAYER=  6 ZONE=  2 ACTIVE CELLS=  989 NUMBER OF EQUATIONS=     989
 UBUDSV SAVING "      ZETASRF  1" ON UNIT 55 AT TIME STEP154, STRESS PERIOD    1


                      VOLUMETRIC SWI ZONE BUDGET FOR ENTIRE MODEL
                     AT END OF TIME STEP  154 IN STRESS PERIOD   1
                                      ZONE     1
  -----------------------------------------------------------------------------------

        CUMULATIVE VOLUMES      L**3       RATES FOR THIS TIME STEP      L**3/T
        ------------------                 ------------------------

              IN:                                      IN:
              ---                                      ---
             BOUNDARIES =       3.1046E-08            BOUNDARIES =       1.6296E-07
          CONSTANT HEAD =       2.9094E-02         CONSTANT HEAD =           0.1593
            ZONE CHANGE =       1.6793E-03           ZONE CHANGE =       5.1462E-03
       ZONE CHG TIP/TOE =       1.9867E-05      ZONE CHG TIP/TOE =       3.3154E-05
            ZONE MIXING =           0.0000           ZONE MIXING =           0.0000

               TOTAL IN =       3.0793E-02              TOTAL IN =           0.1645

             OUT:                                     OUT:
             ----                                     ----
             BOUNDARIES =       3.0723E-02            BOUNDARIES =           0.1642
          CONSTANT HEAD =           0.0000         CONSTANT HEAD =           0.0000
            ZONE CHANGE =       6.8851E-05           ZONE CHANGE =       3.2828E-04
       ZONE CHG TIP/TOE =       3.3655E-07      ZONE CHG TIP/TOE =       1.0981E-06
            ZONE MIXING =           0.0000           ZONE MIXING =           0.0000

              TOTAL OUT =       3.0792E-02             TOTAL OUT =           0.1645

               IN - OUT =       7.8604E-07              IN - OUT =       1.2323E-05

    PERCENT DISCREPANCY =           0.00     PERCENT DISCREPANCY =           0.01



                      VOLUMETRIC SWI ZONE BUDGET FOR ENTIRE MODEL
                     AT END OF TIME STEP  154 IN STRESS PERIOD   1
                                      ZONE     2
  -----------------------------------------------------------------------------------

        CUMULATIVE VOLUMES      L**3       RATES FOR THIS TIME STEP      L**3/T
        ------------------                 ------------------------

              IN:                                      IN:
              ---                                      ---
             BOUNDARIES =       1.2121E-13            BOUNDARIES =       6.1902E-13
          CONSTANT HEAD =       1.5599E-03         CONSTANT HEAD =       4.8226E-03
            ZONE CHANGE =       6.5737E-05           ZONE CHANGE =       3.0853E-04
       ZONE CHG TIP/TOE =       3.3655E-07      ZONE CHG TIP/TOE =       1.0981E-06
            ZONE MIXING =           0.0000           ZONE MIXING =           0.0000

               TOTAL IN =       1.6259E-03              TOTAL IN =       5.1322E-03

             OUT:                                     OUT:
             ----                                     ----
             BOUNDARIES =       1.2084E-13            BOUNDARIES =       6.5397E-13
          CONSTANT HEAD =           0.0000         CONSTANT HEAD =           0.0000
            ZONE CHANGE =       1.6099E-03           ZONE CHANGE =       5.1307E-03
       ZONE CHG TIP/TOE =       1.6754E-05      ZONE CHG TIP/TOE =       1.3403E-05
            ZONE MIXING =           0.0000           ZONE MIXING =           0.0000

              TOTAL OUT =       1.6267E-03             TOTAL OUT =       5.1441E-03

               IN - OUT =      -7.1735E-07              IN - OUT =      -1.1921E-05

    PERCENT DISCREPANCY =          -0.04     PERCENT DISCREPANCY =          -0.23


 HEAD WILL BE SAVED ON UNIT   51 AT END OF TIME STEP  154, STRESS PERIOD    1
1
  VOLUMETRIC BUDGET FOR ENTIRE MODEL AT END OF TIME STEP  154, STRESS PERIOD   1
  ------------------------------------------------------------------------------

     CUMULATIVE VOLUMES      L**3       RATES FOR THIS TIME STEP      L**3/T
     ------------------                 ------------------------

           IN:                                      IN:
           ---                                      ---
             STORAGE =       6.9390E-05               STORAGE =       1.5143E-05
       CONSTANT HEAD =       3.0654E-02         CONSTANT HEAD =           0.1641
               WELLS =           0.0000                 WELLS =           0.0000
          SWIADDTOCH =           0.0000            SWIADDTOCH =           0.0000

            TOTAL IN =       3.0723E-02              TOTAL IN =           0.1642

          OUT:                                     OUT:
          ----                                     ----
             STORAGE =       7.3276E-10               STORAGE =       7.6503E-09
       CONSTANT HEAD =           0.0000         CONSTANT HEAD =           0.0000
               WELLS =       3.0723E-02                 WELLS =           0.1642
          SWIADDTOCH =       9.9872E-10            SWIADDTOCH =           0.0000

           TOTAL OUT =       3.0723E-02             TOTAL OUT =           0.1642

            IN - OUT =      -1.4901E-08              IN - OUT =       8.9407E-08

 PERCENT DISCREPANCY =          -0.00     PERCENT DISCREPANCY =           0.00






         TIME SUMMARY AT END OF TIME STEP  154 IN STRESS PERIOD    1
                    SECONDS     MINUTES      HOURS       DAYS        YEARS
                    -----------------------------------------------------------
   TIME STEP LENGTH  105.00      1.7500     2.91667E-02 1.21528E-03 3.32726E-06
 STRESS PERIOD TIME  16170.      269.50      4.4917     0.18715     5.12397E-04
         TOTAL TIME  16170.      269.50      4.4917     0.18715     5.12397E-04
1

 SOLVING FOR HEAD 
     2 EXTERNAL ITERATIONS FOR TIME STEP 155 IN STRESS PERIOD    1

 MAXIMUM HEAD CHANGE FOR EACH ITERATION:

     HEAD CHANGE  LAY,ROW,COL      HEAD CHANGE  LAY,ROW,COL  
 ------------------------------------------------------------
    -1.945E-05 (  6,    1, 1000)  -1.966E-07 (  6,    1,  999)



 OUTPUT CONTROL FOR STRESS PERIOD    1   TIME STEP  155
    PRINT BUDGET
    SAVE HEAD FOR ALL LAYERS
 SOLVING FOR ZETA FOR LAYER     6 ZONE     2

     495 UPPER PART EQS.       496 LOWER PART EQS.    BAND WIDTH + 1 =    3
 STRESS PERIOD=  1 TIMESTEP=155 LAYER=  6 ZONE=  2 ACTIVE CELLS=  991 NUMBER OF EQUATIONS=     991
 UBUDSV SAVING "      ZETASRF  1" ON UNIT 55 AT TIME STEP155, STRESS PERIOD    1


                      VOLUMETRIC SWI ZONE BUDGET FOR ENTIRE MODEL
                     AT END OF TIME STEP  155 IN STRESS PERIOD   1
                                      ZONE     1
  -----------------------------------------------------------------------------------

        CUMULATIVE VOLUMES      L**3       RATES FOR THIS TIME STEP      L**3/T
        ------------------                 ------------------------

              IN:                                      IN:
              ---                                      ---
             BOUNDARIES =       3.1246E-08            BOUNDARIES =       1.6413E-07
          CONSTANT HEAD =       2.9287E-02         CONSTANT HEAD =           0.1594
            ZONE CHANGE =       1.6855E-03           ZONE CHANGE =       5.0753E-03
       ZONE CHG TIP/TOE =       1.9909E-05      ZONE CHG TIP/TOE =       3.3855E-05
            ZONE MIXING =           0.0000           ZONE MIXING =           0.0000

               TOTAL IN =       3.0993E-02              TOTAL IN =           0.1645

             OUT:                                     OUT:
             ----                                     ----
             BOUNDARIES =       3.0923E-02            BOUNDARIES =           0.1642
          CONSTANT HEAD =           0.0000         CONSTANT HEAD =           0.0000
            ZONE CHANGE =       6.9203E-05           ZONE CHANGE =       2.9008E-04
       ZONE CHG TIP/TOE =       3.3833E-07      ZONE CHG TIP/TOE =       1.4667E-06
            ZONE MIXING =           0.0000           ZONE MIXING =           0.0000

              TOTAL OUT =       3.0992E-02             TOTAL OUT =           0.1645

               IN - OUT =       8.0094E-07              IN - OUT =       1.1101E-05

    PERCENT DISCREPANCY =           0.00     PERCENT DISCREPANCY =           0.01



                      VOLUMETRIC SWI ZONE BUDGET FOR ENTIRE MODEL
                     AT END OF TIME STEP  155 IN STRESS PERIOD   1
                                      ZONE     2
  -----------------------------------------------------------------------------------

        CUMULATIVE VOLUMES      L**3       RATES FOR THIS TIME STEP      L**3/T
        ------------------                 ------------------------

              IN:                                      IN:
              ---                                      ---
             BOUNDARIES =       1.2203E-13            BOUNDARIES =       6.8021E-13
          CONSTANT HEAD =       1.5657E-03         CONSTANT HEAD =       4.7915E-03
            ZONE CHANGE =       6.6066E-05           ZONE CHANGE =       2.7048E-04
       ZONE CHG TIP/TOE =       3.3833E-07      ZONE CHG TIP/TOE =       1.4667E-06
            ZONE MIXING =           0.0000           ZONE MIXING =           0.0000

               TOTAL IN =       1.6321E-03              TOTAL IN =       5.0635E-03

             OUT:                                     OUT:
             ----                                     ----
             BOUNDARIES =       1.2160E-13            BOUNDARIES =       6.2314E-13
          CONSTANT HEAD =           0.0000         CONSTANT HEAD =           0.0000
            ZONE CHANGE =       1.6160E-03           ZONE CHANGE =       5.0599E-03
       ZONE CHG TIP/TOE =       1.6771E-05      ZONE CHG TIP/TOE =       1.4252E-05
            ZONE MIXING =           0.0000           ZONE MIXING =           0.0000

              TOTAL OUT =       1.6328E-03             TOTAL OUT =       5.0742E-03

               IN - OUT =      -7.3027E-07              IN - OUT =      -1.0689E-05

    PERCENT DISCREPANCY =          -0.04     PERCENT DISCREPANCY =          -0.21


 HEAD WILL BE SAVED ON UNIT   51 AT END OF TIME STEP  155, STRESS PERIOD    1
1
  VOLUMETRIC BUDGET FOR ENTIRE MODEL AT END OF TIME STEP  155, STRESS PERIOD   1
  ------------------------------------------------------------------------------

     CUMULATIVE VOLUMES      L**3       RATES FOR THIS TIME STEP      L**3/T
     ------------------                 ------------------------

           IN:                                      IN:
           ---                                      ---
             STORAGE =       6.9409E-05               STORAGE =       1.5084E-05
       CONSTANT HEAD =       3.0853E-02         CONSTANT HEAD =           0.1641
               WELLS =           0.0000                 WELLS =           0.0000
          SWIADDTOCH =           0.0000            SWIADDTOCH =           0.0000

            TOTAL IN =       3.0923E-02              TOTAL IN =           0.1642

          OUT:                                     OUT:
          ----                                     ----
             STORAGE =       7.3866E-10               STORAGE =       4.8539E-09
       CONSTANT HEAD =           0.0000         CONSTANT HEAD =           0.0000
               WELLS =       3.0923E-02                 WELLS =           0.1642
          SWIADDTOCH =       1.0792E-09            SWIADDTOCH =       6.6253E-08

           TOTAL OUT =       3.0923E-02             TOTAL OUT =           0.1642

            IN - OUT =      -1.6764E-08              IN - OUT =       1.0431E-07

 PERCENT DISCREPANCY =          -0.00     PERCENT DISCREPANCY =           0.00






         TIME SUMMARY AT END OF TIME STEP  155 IN STRESS PERIOD    1
                    SECONDS     MINUTES      HOURS       DAYS        YEARS
                    -----------------------------------------------------------
   TIME STEP LENGTH  105.00      1.7500     2.91667E-02 1.21528E-03 3.32726E-06
 STRESS PERIOD TIME  16275.      271.25      4.5208     0.18837     5.15724E-04
         TOTAL TIME  16275.      271.25      4.5208     0.18837     5.15724E-04
1

 SOLVING FOR HEAD 
     2 EXTERNAL ITERATIONS FOR TIME STEP 156 IN STRESS PERIOD    1

 MAXIMUM HEAD CHANGE FOR EACH ITERATION:

     HEAD CHANGE  LAY,ROW,COL      HEAD CHANGE  LAY,ROW,COL  
 ------------------------------------------------------------
    -1.947E-05 (  6,    1, 1000)  -1.962E-07 (  6,    1, 1000)



 OUTPUT CONTROL FOR STRESS PERIOD    1   TIME STEP  156
    PRINT BUDGET
    SAVE HEAD FOR ALL LAYERS
 SOLVING FOR ZETA FOR LAYER     6 ZONE     2

     495 UPPER PART EQS.       494 LOWER PART EQS.    BAND WIDTH + 1 =    4
 STRESS PERIOD=  1 TIMESTEP=156 LAYER=  6 ZONE=  2 ACTIVE CELLS=  989 NUMBER OF EQUATIONS=     989
 UBUDSV SAVING "      ZETASRF  1" ON UNIT 55 AT TIME STEP156, STRESS PERIOD    1


                      VOLUMETRIC SWI ZONE BUDGET FOR ENTIRE MODEL
                     AT END OF TIME STEP  156 IN STRESS PERIOD   1
                                      ZONE     1
  -----------------------------------------------------------------------------------

        CUMULATIVE VOLUMES      L**3       RATES FOR THIS TIME STEP      L**3/T
        ------------------                 ------------------------

              IN:                                      IN:
              ---                                      ---
             BOUNDARIES =       3.1452E-08            BOUNDARIES =       1.6938E-07
          CONSTANT HEAD =       2.9481E-02         CONSTANT HEAD =           0.1594
            ZONE CHANGE =       1.6916E-03           ZONE CHANGE =       5.0155E-03
       ZONE CHG TIP/TOE =       1.9949E-05      ZONE CHG TIP/TOE =       3.3330E-05
            ZONE MIXING =           0.0000           ZONE MIXING =           0.0000

               TOTAL IN =       3.1193E-02              TOTAL IN =           0.1644

             OUT:                                     OUT:
             ----                                     ----
             BOUNDARIES =       3.1122E-02            BOUNDARIES =           0.1642
          CONSTANT HEAD =           0.0000         CONSTANT HEAD =           0.0000
            ZONE CHANGE =       6.9523E-05           ZONE CHANGE =       2.6323E-04
       ZONE CHG TIP/TOE =       3.4104E-07      ZONE CHG TIP/TOE =       2.2332E-06
            ZONE MIXING =           0.0000           ZONE MIXING =           0.0000

              TOTAL OUT =       3.1192E-02             TOTAL OUT =           0.1644

               IN - OUT =       8.1025E-07              IN - OUT =       7.8380E-06

    PERCENT DISCREPANCY =           0.00     PERCENT DISCREPANCY =           0.00



                      VOLUMETRIC SWI ZONE BUDGET FOR ENTIRE MODEL
                     AT END OF TIME STEP  156 IN STRESS PERIOD   1
                                      ZONE     2
  -----------------------------------------------------------------------------------

        CUMULATIVE VOLUMES      L**3       RATES FOR THIS TIME STEP      L**3/T
        ------------------                 ------------------------

              IN:                                      IN:
              ---                                      ---
             BOUNDARIES =       1.2278E-13            BOUNDARIES =       6.1725E-13
          CONSTANT HEAD =       1.5715E-03         CONSTANT HEAD =       4.7606E-03
            ZONE CHANGE =       6.6364E-05           ZONE CHANGE =       2.4519E-04
       ZONE CHG TIP/TOE =       3.4104E-07      ZONE CHG TIP/TOE =       2.2332E-06
            ZONE MIXING =           0.0000           ZONE MIXING =           0.0000

               TOTAL IN =       1.6382E-03              TOTAL IN =       5.0080E-03

             OUT:                                     OUT:
             ----                                     ----
             BOUNDARIES =       1.2236E-13            BOUNDARIES =       6.3057E-13
          CONSTANT HEAD =           0.0000         CONSTANT HEAD =           0.0000
            ZONE CHANGE =       1.6221E-03           ZONE CHANGE =       5.0002E-03
       ZONE CHG TIP/TOE =       1.6790E-05      ZONE CHG TIP/TOE =       1.5290E-05
            ZONE MIXING =           0.0000           ZONE MIXING =           0.0000

              TOTAL OUT =       1.6389E-03             TOTAL OUT =       5.0154E-03

               IN - OUT =      -7.3935E-07              IN - OUT =      -7.4445E-06

    PERCENT DISCREPANCY =          -0.05     PERCENT DISCREPANCY =          -0.15


 HEAD WILL BE SAVED ON UNIT   51 AT END OF TIME STEP  156, STRESS PERIOD    1
1
  VOLUMETRIC BUDGET FOR ENTIRE MODEL AT END OF TIME STEP  156, STRESS PERIOD   1
  ------------------------------------------------------------------------------

     CUMULATIVE VOLUMES      L**3       RATES FOR THIS TIME STEP      L**3/T
     ------------------                 ------------------------

           IN:                                      IN:
           ---                                      ---
             STORAGE =       6.9427E-05               STORAGE =       1.5026E-05
       CONSTANT HEAD =       3.1053E-02         CONSTANT HEAD =           0.1641
               WELLS =           0.0000                 WELLS =           0.0000
          SWIADDTOCH =           0.0000            SWIADDTOCH =           0.0000

            TOTAL IN =       3.1122E-02              TOTAL IN =           0.1642

          OUT:                                     OUT:
          ----                                     ----
             STORAGE =       7.4455E-10               STORAGE =       4.8518E-09
       CONSTANT HEAD =           0.0000         CONSTANT HEAD =           0.0000
               WELLS =       3.1122E-02                 WELLS =           0.1642
          SWIADDTOCH =       1.0792E-09            SWIADDTOCH =           0.0000

           TOTAL OUT =       3.1122E-02             TOTAL OUT =           0.1642

            IN - OUT =      -1.6764E-08              IN - OUT =       8.9407E-08

 PERCENT DISCREPANCY =          -0.00     PERCENT DISCREPANCY =           0.00






         TIME SUMMARY AT END OF TIME STEP  156 IN STRESS PERIOD    1
                    SECONDS     MINUTES      HOURS       DAYS        YEARS
                    -----------------------------------------------------------
   TIME STEP LENGTH  105.00      1.7500     2.91667E-02 1.21528E-03 3.32726E-06
 STRESS PERIOD TIME  16380.      273.00      4.5500     0.18958     5.19052E-04
         TOTAL TIME  16380.      273.00      4.5500     0.18958     5.19052E-04
1

 SOLVING FOR HEAD 
     2 EXTERNAL ITERATIONS FOR TIME STEP 157 IN STRESS PERIOD    1

 MAXIMUM HEAD CHANGE FOR EACH ITERATION:

     HEAD CHANGE  LAY,ROW,COL      HEAD CHANGE  LAY,ROW,COL  
 ------------------------------------------------------------
    -1.948E-05 (  6,    1, 1000)  -1.953E-07 (  6,    1, 1000)



 OUTPUT CONTROL FOR STRESS PERIOD    1   TIME STEP  157
    PRINT BUDGET
    SAVE HEAD FOR ALL LAYERS
 SOLVING FOR ZETA FOR LAYER     6 ZONE     2

     494 UPPER PART EQS.       495 LOWER PART EQS.    BAND WIDTH + 1 =    3
 STRESS PERIOD=  1 TIMESTEP=157 LAYER=  6 ZONE=  2 ACTIVE CELLS=  989 NUMBER OF EQUATIONS=     989
 UBUDSV SAVING "      ZETASRF  1" ON UNIT 55 AT TIME STEP157, STRESS PERIOD    1


                      VOLUMETRIC SWI ZONE BUDGET FOR ENTIRE MODEL
                     AT END OF TIME STEP  157 IN STRESS PERIOD   1
                                      ZONE     1
  -----------------------------------------------------------------------------------

        CUMULATIVE VOLUMES      L**3       RATES FOR THIS TIME STEP      L**3/T
        ------------------                 ------------------------

              IN:                                      IN:
              ---                                      ---
             BOUNDARIES =       3.1652E-08            BOUNDARIES =       1.6505E-07
          CONSTANT HEAD =       2.9675E-02         CONSTANT HEAD =           0.1594
            ZONE CHANGE =       1.6976E-03           ZONE CHANGE =       4.9674E-03
       ZONE CHG TIP/TOE =       1.9981E-05      ZONE CHG TIP/TOE =       2.6305E-05
            ZONE MIXING =           0.0000           ZONE MIXING =           0.0000

               TOTAL IN =       3.1393E-02              TOTAL IN =           0.1644

             OUT:                                     OUT:
             ----                                     ----
             BOUNDARIES =       3.1322E-02            BOUNDARIES =           0.1642
          CONSTANT HEAD =           0.0000         CONSTANT HEAD =           0.0000
            ZONE CHANGE =       6.9821E-05           ZONE CHANGE =       2.4515E-04
       ZONE CHG TIP/TOE =       3.4189E-07      ZONE CHG TIP/TOE =       6.9539E-07
            ZONE MIXING =           0.0000           ZONE MIXING =           0.0000

              TOTAL OUT =       3.1392E-02             TOTAL OUT =           0.1644

               IN - OUT =       8.1211E-07              IN - OUT =       3.2634E-06

    PERCENT DISCREPANCY =           0.00     PERCENT DISCREPANCY =           0.00



                      VOLUMETRIC SWI ZONE BUDGET FOR ENTIRE MODEL
                     AT END OF TIME STEP  157 IN STRESS PERIOD   1
                                      ZONE     2
  -----------------------------------------------------------------------------------

        CUMULATIVE VOLUMES      L**3       RATES FOR THIS TIME STEP      L**3/T
        ------------------                 ------------------------

              IN:                                      IN:
              ---                                      ---
             BOUNDARIES =       1.2358E-13            BOUNDARIES =       6.5615E-13
          CONSTANT HEAD =       1.5772E-03         CONSTANT HEAD =       4.7297E-03
            ZONE CHANGE =       6.6646E-05           ZONE CHANGE =       2.3180E-04
       ZONE CHG TIP/TOE =       3.4189E-07      ZONE CHG TIP/TOE =       6.9539E-07
            ZONE MIXING =           0.0000           ZONE MIXING =           0.0000

               TOTAL IN =       1.6442E-03              TOTAL IN =       4.9622E-03

             OUT:                                     OUT:
             ----                                     ----
             BOUNDARIES =       1.2315E-13            BOUNDARIES =       6.4617E-13
          CONSTANT HEAD =           0.0000         CONSTANT HEAD =           0.0000
            ZONE CHANGE =       1.6281E-03           ZONE CHANGE =       4.9521E-03
       ZONE CHG TIP/TOE =       1.6805E-05      ZONE CHG TIP/TOE =       1.2956E-05
            ZONE MIXING =           0.0000           ZONE MIXING =           0.0000

              TOTAL OUT =       1.6449E-03             TOTAL OUT =       4.9650E-03

               IN - OUT =      -7.4285E-07              IN - OUT =      -2.8610E-06

    PERCENT DISCREPANCY =          -0.05     PERCENT DISCREPANCY =          -0.06


 HEAD WILL BE SAVED ON UNIT   51 AT END OF TIME STEP  157, STRESS PERIOD    1
1
  VOLUMETRIC BUDGET FOR ENTIRE MODEL AT END OF TIME STEP  157, STRESS PERIOD   1
  ------------------------------------------------------------------------------

     CUMULATIVE VOLUMES      L**3       RATES FOR THIS TIME STEP      L**3/T
     ------------------                 ------------------------

           IN:                                      IN:
           ---                                      ---
             STORAGE =       6.9445E-05               STORAGE =       1.4963E-05
       CONSTANT HEAD =       3.1252E-02         CONSTANT HEAD =           0.1641
               WELLS =           0.0000                 WELLS =           0.0000
          SWIADDTOCH =           0.0000            SWIADDTOCH =           0.0000

            TOTAL IN =       3.1322E-02              TOTAL IN =           0.1642

          OUT:                                     OUT:
          ----                                     ----
             STORAGE =       7.4932E-10               STORAGE =       3.9184E-09
       CONSTANT HEAD =           0.0000         CONSTANT HEAD =           0.0000
               WELLS =       3.1322E-02                 WELLS =           0.1642
          SWIADDTOCH =       1.0792E-09            SWIADDTOCH =           0.0000

           TOTAL OUT =       3.1322E-02             TOTAL OUT =           0.1642

            IN - OUT =      -1.1176E-08              IN - OUT =       1.0431E-07

 PERCENT DISCREPANCY =          -0.00     PERCENT DISCREPANCY =           0.00






         TIME SUMMARY AT END OF TIME STEP  157 IN STRESS PERIOD    1
                    SECONDS     MINUTES      HOURS       DAYS        YEARS
                    -----------------------------------------------------------
   TIME STEP LENGTH  105.00      1.7500     2.91667E-02 1.21528E-03 3.32726E-06
 STRESS PERIOD TIME  16485.      274.75      4.5792     0.19080     5.22379E-04
         TOTAL TIME  16485.      274.75      4.5792     0.19080     5.22379E-04
1

 SOLVING FOR HEAD 
     2 EXTERNAL ITERATIONS FOR TIME STEP 158 IN STRESS PERIOD    1

 MAXIMUM HEAD CHANGE FOR EACH ITERATION:

     HEAD CHANGE  LAY,ROW,COL      HEAD CHANGE  LAY,ROW,COL  
 ------------------------------------------------------------
    -1.950E-05 (  6,    1, 1000)  -1.950E-07 (  6,    1, 1000)



 OUTPUT CONTROL FOR STRESS PERIOD    1   TIME STEP  158
    PRINT BUDGET
    SAVE HEAD FOR ALL LAYERS
 SOLVING FOR ZETA FOR LAYER     6 ZONE     2

     495 UPPER PART EQS.       497 LOWER PART EQS.    BAND WIDTH + 1 =    4
 STRESS PERIOD=  1 TIMESTEP=158 LAYER=  6 ZONE=  2 ACTIVE CELLS=  992 NUMBER OF EQUATIONS=     992
 UBUDSV SAVING "      ZETASRF  1" ON UNIT 55 AT TIME STEP158, STRESS PERIOD    1


                      VOLUMETRIC SWI ZONE BUDGET FOR ENTIRE MODEL
                     AT END OF TIME STEP  158 IN STRESS PERIOD   1
                                      ZONE     1
  -----------------------------------------------------------------------------------

        CUMULATIVE VOLUMES      L**3       RATES FOR THIS TIME STEP      L**3/T
        ------------------                 ------------------------

              IN:                                      IN:
              ---                                      ---
             BOUNDARIES =       3.1867E-08            BOUNDARIES =       1.7667E-07
          CONSTANT HEAD =       2.9869E-02         CONSTANT HEAD =           0.1594
            ZONE CHANGE =       1.7036E-03           ZONE CHANGE =       4.9194E-03
       ZONE CHG TIP/TOE =       2.0014E-05      ZONE CHG TIP/TOE =       2.7229E-05
            ZONE MIXING =           0.0000           ZONE MIXING =           0.0000

               TOTAL IN =       3.1592E-02              TOTAL IN =           0.1644

             OUT:                                     OUT:
             ----                                     ----
             BOUNDARIES =       3.1521E-02            BOUNDARIES =           0.1642
          CONSTANT HEAD =           0.0000         CONSTANT HEAD =           0.0000
            ZONE CHANGE =       7.0096E-05           ZONE CHANGE =       2.2636E-04
       ZONE CHG TIP/TOE =       3.4331E-07      ZONE CHG TIP/TOE =       1.1724E-06
            ZONE MIXING =           0.0000           ZONE MIXING =           0.0000

              TOTAL OUT =       3.1592E-02             TOTAL OUT =           0.1644

               IN - OUT =       8.1584E-07              IN - OUT =       5.2154E-06

    PERCENT DISCREPANCY =           0.00     PERCENT DISCREPANCY =           0.00



                      VOLUMETRIC SWI ZONE BUDGET FOR ENTIRE MODEL
                     AT END OF TIME STEP  158 IN STRESS PERIOD   1
                                      ZONE     2
  -----------------------------------------------------------------------------------

        CUMULATIVE VOLUMES      L**3       RATES FOR THIS TIME STEP      L**3/T
        ------------------                 ------------------------

              IN:                                      IN:
              ---                                      ---
             BOUNDARIES =       1.2439E-13            BOUNDARIES =       6.6897E-13
          CONSTANT HEAD =       1.5829E-03         CONSTANT HEAD =       4.6990E-03
            ZONE CHANGE =       6.6903E-05           ZONE CHANGE =       2.1157E-04
       ZONE CHG TIP/TOE =       3.4331E-07      ZONE CHG TIP/TOE =       1.1724E-06
            ZONE MIXING =           0.0000           ZONE MIXING =           0.0000

               TOTAL IN =       1.6502E-03              TOTAL IN =       4.9118E-03

             OUT:                                     OUT:
             ----                                     ----
             BOUNDARIES =       1.2392E-13            BOUNDARIES =       6.3169E-13
          CONSTANT HEAD =           0.0000         CONSTANT HEAD =           0.0000
            ZONE CHANGE =       1.6341E-03           ZONE CHANGE =       4.9042E-03
       ZONE CHG TIP/TOE =       1.6820E-05      ZONE CHG TIP/TOE =       1.2438E-05
            ZONE MIXING =           0.0000           ZONE MIXING =           0.0000

              TOTAL OUT =       1.6509E-03             TOTAL OUT =       4.9166E-03

               IN - OUT =      -7.4878E-07              IN - OUT =      -4.8205E-06

    PERCENT DISCREPANCY =          -0.05     PERCENT DISCREPANCY =          -0.10


 HEAD WILL BE SAVED ON UNIT   51 AT END OF TIME STEP  158, STRESS PERIOD    1
1
  VOLUMETRIC BUDGET FOR ENTIRE MODEL AT END OF TIME STEP  158, STRESS PERIOD   1
  ------------------------------------------------------------------------------

     CUMULATIVE VOLUMES      L**3       RATES FOR THIS TIME STEP      L**3/T
     ------------------                 ------------------------

           IN:                                      IN:
           ---                                      ---
             STORAGE =       6.9463E-05               STORAGE =       1.4909E-05
       CONSTANT HEAD =       3.1452E-02         CONSTANT HEAD =           0.1641
               WELLS =           0.0000                 WELLS =           0.0000
          SWIADDTOCH =           0.0000            SWIADDTOCH =           0.0000

            TOTAL IN =       3.1521E-02              TOTAL IN =           0.1642

          OUT:                                     OUT:
          ----                                     ----
             STORAGE =       7.5747E-10               STORAGE =       6.7101E-09
       CONSTANT HEAD =           0.0000         CONSTANT HEAD =           0.0000
               WELLS =       3.1521E-02                 WELLS =           0.1642
          SWIADDTOCH =       1.0792E-09            SWIADDTOCH =           0.0000

           TOTAL OUT =       3.1521E-02             TOTAL OUT =           0.1642

            IN - OUT =      -1.4901E-08              IN - OUT =       1.0431E-07

 PERCENT DISCREPANCY =          -0.00     PERCENT DISCREPANCY =           0.00






         TIME SUMMARY AT END OF TIME STEP  158 IN STRESS PERIOD    1
                    SECONDS     MINUTES      HOURS       DAYS        YEARS
                    -----------------------------------------------------------
   TIME STEP LENGTH  105.00      1.7500     2.91667E-02 1.21528E-03 3.32726E-06
 STRESS PERIOD TIME  16590.      276.50      4.6083     0.19201     5.25706E-04
         TOTAL TIME  16590.      276.50      4.6083     0.19201     5.25706E-04
1

 SOLVING FOR HEAD 
     2 EXTERNAL ITERATIONS FOR TIME STEP 159 IN STRESS PERIOD    1

 MAXIMUM HEAD CHANGE FOR EACH ITERATION:

     HEAD CHANGE  LAY,ROW,COL      HEAD CHANGE  LAY,ROW,COL  
 ------------------------------------------------------------
    -1.952E-05 (  6,    1, 1000)  -1.945E-07 (  6,    1, 1000)



 OUTPUT CONTROL FOR STRESS PERIOD    1   TIME STEP  159
    PRINT BUDGET
    SAVE HEAD FOR ALL LAYERS
 SOLVING FOR ZETA FOR LAYER     6 ZONE     2

     494 UPPER PART EQS.       495 LOWER PART EQS.    BAND WIDTH + 1 =    3
 STRESS PERIOD=  1 TIMESTEP=159 LAYER=  6 ZONE=  2 ACTIVE CELLS=  989 NUMBER OF EQUATIONS=     989
 UBUDSV SAVING "      ZETASRF  1" ON UNIT 55 AT TIME STEP159, STRESS PERIOD    1


                      VOLUMETRIC SWI ZONE BUDGET FOR ENTIRE MODEL
                     AT END OF TIME STEP  159 IN STRESS PERIOD   1
                                      ZONE     1
  -----------------------------------------------------------------------------------

        CUMULATIVE VOLUMES      L**3       RATES FOR THIS TIME STEP      L**3/T
        ------------------                 ------------------------

              IN:                                      IN:
              ---                                      ---
             BOUNDARIES =       3.2082E-08            BOUNDARIES =       1.7668E-07
          CONSTANT HEAD =       3.0062E-02         CONSTANT HEAD =           0.1595
            ZONE CHANGE =       1.7095E-03           ZONE CHANGE =       4.8591E-03
       ZONE CHG TIP/TOE =       2.0036E-05      ZONE CHG TIP/TOE =       1.7749E-05
            ZONE MIXING =           0.0000           ZONE MIXING =           0.0000

               TOTAL IN =       3.1792E-02              TOTAL IN =           0.1644

             OUT:                                     OUT:
             ----                                     ----
             BOUNDARIES =       3.1721E-02            BOUNDARIES =           0.1642
          CONSTANT HEAD =           0.0000         CONSTANT HEAD =           0.0000
            ZONE CHANGE =       7.0334E-05           ZONE CHANGE =       1.9550E-04
       ZONE CHG TIP/TOE =       3.4571E-07      ZONE CHG TIP/TOE =       1.9712E-06
            ZONE MIXING =           0.0000           ZONE MIXING =           0.0000

              TOTAL OUT =       3.1791E-02             TOTAL OUT =           0.1644

               IN - OUT =       8.1211E-07              IN - OUT =      -3.6508E-06

    PERCENT DISCREPANCY =           0.00     PERCENT DISCREPANCY =          -0.00



                      VOLUMETRIC SWI ZONE BUDGET FOR ENTIRE MODEL
                     AT END OF TIME STEP  159 IN STRESS PERIOD   1
                                      ZONE     2
  -----------------------------------------------------------------------------------

        CUMULATIVE VOLUMES      L**3       RATES FOR THIS TIME STEP      L**3/T
        ------------------                 ------------------------

              IN:                                      IN:
              ---                                      ---
             BOUNDARIES =       1.2522E-13            BOUNDARIES =       6.8160E-13
          CONSTANT HEAD =       1.5886E-03         CONSTANT HEAD =       4.6683E-03
            ZONE CHANGE =       6.7129E-05           ZONE CHANGE =       1.8609E-04
       ZONE CHG TIP/TOE =       3.4571E-07      ZONE CHG TIP/TOE =       1.9712E-06
            ZONE MIXING =           0.0000           ZONE MIXING =           0.0000

               TOTAL IN =       1.6561E-03              TOTAL IN =       4.8564E-03

             OUT:                                     OUT:
             ----                                     ----
             BOUNDARIES =       1.2469E-13            BOUNDARIES =       6.3310E-13
          CONSTANT HEAD =           0.0000         CONSTANT HEAD =           0.0000
            ZONE CHANGE =       1.6400E-03           ZONE CHANGE =       4.8439E-03
       ZONE CHG TIP/TOE =       1.6831E-05      ZONE CHG TIP/TOE =       8.3471E-06
            ZONE MIXING =           0.0000           ZONE MIXING =           0.0000

              TOTAL OUT =       1.6568E-03             TOTAL OUT =       4.8523E-03

               IN - OUT =      -7.4366E-07              IN - OUT =       4.0899E-06

    PERCENT DISCREPANCY =          -0.04     PERCENT DISCREPANCY =           0.08


 HEAD WILL BE SAVED ON UNIT   51 AT END OF TIME STEP  159, STRESS PERIOD    1
1
  VOLUMETRIC BUDGET FOR ENTIRE MODEL AT END OF TIME STEP  159, STRESS PERIOD   1
  ------------------------------------------------------------------------------

     CUMULATIVE VOLUMES      L**3       RATES FOR THIS TIME STEP      L**3/T
     ------------------                 ------------------------

           IN:                                      IN:
           ---                                      ---
             STORAGE =       6.9481E-05               STORAGE =       1.4835E-05
       CONSTANT HEAD =       3.1651E-02         CONSTANT HEAD =           0.1641
               WELLS =           0.0000                 WELLS =           0.0000
          SWIADDTOCH =           0.0000            SWIADDTOCH =           0.0000

            TOTAL IN =       3.1721E-02              TOTAL IN =           0.1642

          OUT:                                     OUT:
          ----                                     ----
             STORAGE =       7.5996E-10               STORAGE =       2.0516E-09
       CONSTANT HEAD =           0.0000         CONSTANT HEAD =           0.0000
               WELLS =       3.1721E-02                 WELLS =           0.1642
          SWIADDTOCH =       1.0792E-09            SWIADDTOCH =           0.0000

           TOTAL OUT =       3.1721E-02             TOTAL OUT =           0.1642

            IN - OUT =      -1.4901E-08              IN - OUT =       8.9407E-08

 PERCENT DISCREPANCY =          -0.00     PERCENT DISCREPANCY =           0.00






         TIME SUMMARY AT END OF TIME STEP  159 IN STRESS PERIOD    1
                    SECONDS     MINUTES      HOURS       DAYS        YEARS
                    -----------------------------------------------------------
   TIME STEP LENGTH  105.00      1.7500     2.91667E-02 1.21528E-03 3.32726E-06
 STRESS PERIOD TIME  16695.      278.25      4.6375     0.19323     5.29033E-04
         TOTAL TIME  16695.      278.25      4.6375     0.19323     5.29033E-04
1

 SOLVING FOR HEAD 
     2 EXTERNAL ITERATIONS FOR TIME STEP 160 IN STRESS PERIOD    1

 MAXIMUM HEAD CHANGE FOR EACH ITERATION:

     HEAD CHANGE  LAY,ROW,COL      HEAD CHANGE  LAY,ROW,COL  
 ------------------------------------------------------------
    -1.953E-05 (  6,    1, 1000)  -1.936E-07 (  6,    1, 1000)



 OUTPUT CONTROL FOR STRESS PERIOD    1   TIME STEP  160
    PRINT BUDGET
    SAVE HEAD FOR ALL LAYERS
 SOLVING FOR ZETA FOR LAYER     6 ZONE     2

     496 UPPER PART EQS.       498 LOWER PART EQS.    BAND WIDTH + 1 =    4
 STRESS PERIOD=  1 TIMESTEP=160 LAYER=  6 ZONE=  2 ACTIVE CELLS=  994 NUMBER OF EQUATIONS=     994
 UBUDSV SAVING "      ZETASRF  1" ON UNIT 55 AT TIME STEP160, STRESS PERIOD    1


                      VOLUMETRIC SWI ZONE BUDGET FOR ENTIRE MODEL
                     AT END OF TIME STEP  160 IN STRESS PERIOD   1
                                      ZONE     1
  -----------------------------------------------------------------------------------

        CUMULATIVE VOLUMES      L**3       RATES FOR THIS TIME STEP      L**3/T
        ------------------                 ------------------------

              IN:                                      IN:
              ---                                      ---
             BOUNDARIES =       3.2274E-08            BOUNDARIES =       1.5852E-07
          CONSTANT HEAD =       3.0256E-02         CONSTANT HEAD =           0.1595
            ZONE CHANGE =       1.7154E-03           ZONE CHANGE =       4.7992E-03
       ZONE CHG TIP/TOE =       2.0057E-05      ZONE CHG TIP/TOE =       1.7274E-05
            ZONE MIXING =           0.0000           ZONE MIXING =           0.0000

               TOTAL IN =       3.1992E-02              TOTAL IN =           0.1643

             OUT:                                     OUT:
             ----                                     ----
             BOUNDARIES =       3.1920E-02            BOUNDARIES =           0.1642
          CONSTANT HEAD =           0.0000         CONSTANT HEAD =           0.0000
            ZONE CHANGE =       7.0535E-05           ZONE CHANGE =       1.6551E-04
       ZONE CHG TIP/TOE =       3.4889E-07      ZONE CHG TIP/TOE =       2.6142E-06
            ZONE MIXING =           0.0000           ZONE MIXING =           0.0000

              TOTAL OUT =       3.1991E-02             TOTAL OUT =           0.1643

               IN - OUT =       8.0466E-07              IN - OUT =      -4.2021E-06

    PERCENT DISCREPANCY =           0.00     PERCENT DISCREPANCY =          -0.00



                      VOLUMETRIC SWI ZONE BUDGET FOR ENTIRE MODEL
                     AT END OF TIME STEP  160 IN STRESS PERIOD   1
                                      ZONE     2
  -----------------------------------------------------------------------------------

        CUMULATIVE VOLUMES      L**3       RATES FOR THIS TIME STEP      L**3/T
        ------------------                 ------------------------

              IN:                                      IN:
              ---                                      ---
             BOUNDARIES =       1.2603E-13            BOUNDARIES =       6.6727E-13
          CONSTANT HEAD =       1.5942E-03         CONSTANT HEAD =       4.6378E-03
            ZONE CHANGE =       6.7319E-05           ZONE CHANGE =       1.5651E-04
       ZONE CHG TIP/TOE =       3.4889E-07      ZONE CHG TIP/TOE =       2.6142E-06
            ZONE MIXING =           0.0000           ZONE MIXING =           0.0000

               TOTAL IN =       1.6619E-03              TOTAL IN =       4.7969E-03

             OUT:                                     OUT:
             ----                                     ----
             BOUNDARIES =       1.2551E-13            BOUNDARIES =       6.8034E-13
          CONSTANT HEAD =           0.0000         CONSTANT HEAD =           0.0000
            ZONE CHANGE =       1.6458E-03           ZONE CHANGE =       4.7840E-03
       ZONE CHG TIP/TOE =       1.6841E-05      ZONE CHG TIP/TOE =       8.2709E-06
            ZONE MIXING =           0.0000           ZONE MIXING =           0.0000

              TOTAL OUT =       1.6626E-03             TOTAL OUT =       4.7923E-03

               IN - OUT =      -7.3807E-07              IN - OUT =       4.6403E-06

    PERCENT DISCREPANCY =          -0.04     PERCENT DISCREPANCY =           0.10


 HEAD WILL BE SAVED ON UNIT   51 AT END OF TIME STEP  160, STRESS PERIOD    1
1
  VOLUMETRIC BUDGET FOR ENTIRE MODEL AT END OF TIME STEP  160, STRESS PERIOD   1
  ------------------------------------------------------------------------------

     CUMULATIVE VOLUMES      L**3       RATES FOR THIS TIME STEP      L**3/T
     ------------------                 ------------------------

           IN:                                      IN:
           ---                                      ---
             STORAGE =       6.9499E-05               STORAGE =       1.4813E-05
       CONSTANT HEAD =       3.1851E-02         CONSTANT HEAD =           0.1641
               WELLS =           0.0000                 WELLS =           0.0000
          SWIADDTOCH =           0.0000            SWIADDTOCH =           0.0000

            TOTAL IN =       3.1920E-02              TOTAL IN =           0.1642

          OUT:                                     OUT:
          ----                                     ----
             STORAGE =       7.6585E-10               STORAGE =       4.8436E-09
       CONSTANT HEAD =           0.0000         CONSTANT HEAD =           0.0000
               WELLS =       3.1920E-02                 WELLS =           0.1642
          SWIADDTOCH =       1.1616E-09            SWIADDTOCH =       6.7773E-08

           TOTAL OUT =       3.1920E-02             TOTAL OUT =           0.1642

            IN - OUT =      -1.4901E-08              IN - OUT =       1.3411E-07

 PERCENT DISCREPANCY =          -0.00     PERCENT DISCREPANCY =           0.00






         TIME SUMMARY AT END OF TIME STEP  160 IN STRESS PERIOD    1
                    SECONDS     MINUTES      HOURS       DAYS        YEARS
                    -----------------------------------------------------------
   TIME STEP LENGTH  105.00      1.7500     2.91667E-02 1.21528E-03 3.32726E-06
 STRESS PERIOD TIME  16800.      280.00      4.6667     0.19444     5.32361E-04
         TOTAL TIME  16800.      280.00      4.6667     0.19444     5.32361E-04
1

 SOLVING FOR HEAD 
     2 EXTERNAL ITERATIONS FOR TIME STEP 161 IN STRESS PERIOD    1

 MAXIMUM HEAD CHANGE FOR EACH ITERATION:

     HEAD CHANGE  LAY,ROW,COL      HEAD CHANGE  LAY,ROW,COL  
 ------------------------------------------------------------
    -1.955E-05 (  6,    1, 1000)  -1.929E-07 (  6,    1,  999)



 OUTPUT CONTROL FOR STRESS PERIOD    1   TIME STEP  161
    PRINT BUDGET
    SAVE HEAD FOR ALL LAYERS
 SOLVING FOR ZETA FOR LAYER     6 ZONE     2

     494 UPPER PART EQS.       495 LOWER PART EQS.    BAND WIDTH + 1 =    3
 STRESS PERIOD=  1 TIMESTEP=161 LAYER=  6 ZONE=  2 ACTIVE CELLS=  989 NUMBER OF EQUATIONS=     989
 UBUDSV SAVING "      ZETASRF  1" ON UNIT 55 AT TIME STEP161, STRESS PERIOD    1


                      VOLUMETRIC SWI ZONE BUDGET FOR ENTIRE MODEL
                     AT END OF TIME STEP  161 IN STRESS PERIOD   1
                                      ZONE     1
  -----------------------------------------------------------------------------------

        CUMULATIVE VOLUMES      L**3       RATES FOR THIS TIME STEP      L**3/T
        ------------------                 ------------------------

              IN:                                      IN:
              ---                                      ---
             BOUNDARIES =       3.2478E-08            BOUNDARIES =       1.6746E-07
          CONSTANT HEAD =       3.0450E-02         CONSTANT HEAD =           0.1595
            ZONE CHANGE =       1.7211E-03           ZONE CHANGE =       4.7550E-03
       ZONE CHG TIP/TOE =       2.0068E-05      ZONE CHG TIP/TOE =       9.1274E-06
            ZONE MIXING =           0.0000           ZONE MIXING =           0.0000

               TOTAL IN =       3.2191E-02              TOTAL IN =           0.1643

             OUT:                                     OUT:
             ----                                     ----
             BOUNDARIES =       3.2120E-02            BOUNDARIES =           0.1642
          CONSTANT HEAD =           0.0000         CONSTANT HEAD =           0.0000
            ZONE CHANGE =       7.0724E-05           ZONE CHANGE =       1.5525E-04
       ZONE CHG TIP/TOE =       3.5053E-07      ZONE CHG TIP/TOE =       1.3506E-06
            ZONE MIXING =           0.0000           ZONE MIXING =           0.0000

              TOTAL OUT =       3.2191E-02             TOTAL OUT =           0.1643

               IN - OUT =       7.8976E-07              IN - OUT =      -1.4395E-05

    PERCENT DISCREPANCY =           0.00     PERCENT DISCREPANCY =          -0.01



                      VOLUMETRIC SWI ZONE BUDGET FOR ENTIRE MODEL
                     AT END OF TIME STEP  161 IN STRESS PERIOD   1
                                      ZONE     2
  -----------------------------------------------------------------------------------

        CUMULATIVE VOLUMES      L**3       RATES FOR THIS TIME STEP      L**3/T
        ------------------                 ------------------------

              IN:                                      IN:
              ---                                      ---
             BOUNDARIES =       1.2682E-13            BOUNDARIES =       6.5220E-13
          CONSTANT HEAD =       1.5998E-03         CONSTANT HEAD =       4.6073E-03
            ZONE CHANGE =       6.7504E-05           ZONE CHANGE =       1.5193E-04
       ZONE CHG TIP/TOE =       3.5053E-07      ZONE CHG TIP/TOE =       1.3506E-06
            ZONE MIXING =           0.0000           ZONE MIXING =           0.0000

               TOTAL IN =       1.6677E-03              TOTAL IN =       4.7606E-03

             OUT:                                     OUT:
             ----                                     ----
             BOUNDARIES =       1.2627E-13            BOUNDARIES =       6.2478E-13
          CONSTANT HEAD =           0.0000         CONSTANT HEAD =           0.0000
            ZONE CHANGE =       1.6516E-03           ZONE CHANGE =       4.7400E-03
       ZONE CHG TIP/TOE =       1.6848E-05      ZONE CHG TIP/TOE =       5.8116E-06
            ZONE MIXING =           0.0000           ZONE MIXING =           0.0000

              TOTAL OUT =       1.6684E-03             TOTAL OUT =       4.7458E-03

               IN - OUT =      -7.1991E-07              IN - OUT =       1.4821E-05

    PERCENT DISCREPANCY =          -0.04     PERCENT DISCREPANCY =           0.31


 HEAD WILL BE SAVED ON UNIT   51 AT END OF TIME STEP  161, STRESS PERIOD    1
1
  VOLUMETRIC BUDGET FOR ENTIRE MODEL AT END OF TIME STEP  161, STRESS PERIOD   1
  ------------------------------------------------------------------------------

     CUMULATIVE VOLUMES      L**3       RATES FOR THIS TIME STEP      L**3/T
     ------------------                 ------------------------

           IN:                                      IN:
           ---                                      ---
             STORAGE =       6.9517E-05               STORAGE =       1.4708E-05
       CONSTANT HEAD =       3.2050E-02         CONSTANT HEAD =           0.1641
               WELLS =           0.0000                 WELLS =           0.0000
          SWIADDTOCH =           0.0000            SWIADDTOCH =           0.0000

            TOTAL IN =       3.2120E-02              TOTAL IN =           0.1642

          OUT:                                     OUT:
          ----                                     ----
             STORAGE =       7.7400E-10               STORAGE =       6.7045E-09
       CONSTANT HEAD =           0.0000         CONSTANT HEAD =           0.0000
               WELLS =       3.2120E-02                 WELLS =           0.1642
          SWIADDTOCH =       1.1616E-09            SWIADDTOCH =           0.0000

           TOTAL OUT =       3.2120E-02             TOTAL OUT =           0.1642

            IN - OUT =      -1.4901E-08              IN - OUT =       1.1921E-07

 PERCENT DISCREPANCY =          -0.00     PERCENT DISCREPANCY =           0.00






         TIME SUMMARY AT END OF TIME STEP  161 IN STRESS PERIOD    1
                    SECONDS     MINUTES      HOURS       DAYS        YEARS
                    -----------------------------------------------------------
   TIME STEP LENGTH  105.00      1.7500     2.91667E-02 1.21528E-03 3.32726E-06
 STRESS PERIOD TIME  16905.      281.75      4.6958     0.19566     5.35688E-04
         TOTAL TIME  16905.      281.75      4.6958     0.19566     5.35688E-04
1

 SOLVING FOR HEAD 
     2 EXTERNAL ITERATIONS FOR TIME STEP 162 IN STRESS PERIOD    1

 MAXIMUM HEAD CHANGE FOR EACH ITERATION:

     HEAD CHANGE  LAY,ROW,COL      HEAD CHANGE  LAY,ROW,COL  
 ------------------------------------------------------------
    -1.959E-05 (  6,    1, 1000)  -1.926E-07 (  6,    1,  999)



 OUTPUT CONTROL FOR STRESS PERIOD    1   TIME STEP  162
    PRINT BUDGET
    SAVE HEAD FOR ALL LAYERS
 SOLVING FOR ZETA FOR LAYER     6 ZONE     2

     497 UPPER PART EQS.       498 LOWER PART EQS.    BAND WIDTH + 1 =    2
 STRESS PERIOD=  1 TIMESTEP=162 LAYER=  6 ZONE=  2 ACTIVE CELLS=  995 NUMBER OF EQUATIONS=     995
 UBUDSV SAVING "      ZETASRF  1" ON UNIT 55 AT TIME STEP162, STRESS PERIOD    1


                      VOLUMETRIC SWI ZONE BUDGET FOR ENTIRE MODEL
                     AT END OF TIME STEP  162 IN STRESS PERIOD   1
                                      ZONE     1
  -----------------------------------------------------------------------------------

        CUMULATIVE VOLUMES      L**3       RATES FOR THIS TIME STEP      L**3/T
        ------------------                 ------------------------

              IN:                                      IN:
              ---                                      ---
             BOUNDARIES =       3.2697E-08            BOUNDARIES =       1.8046E-07
          CONSTANT HEAD =       3.0644E-02         CONSTANT HEAD =           0.1596
            ZONE CHANGE =       1.7269E-03           ZONE CHANGE =       4.7031E-03
       ZONE CHG TIP/TOE =       2.0083E-05      ZONE CHG TIP/TOE =       1.2550E-05
            ZONE MIXING =           0.0000           ZONE MIXING =           0.0000

               TOTAL IN =       3.2391E-02              TOTAL IN =           0.1643

             OUT:                                     OUT:
             ----                                     ----
             BOUNDARIES =       3.2319E-02            BOUNDARIES =           0.1642
          CONSTANT HEAD =           0.0000         CONSTANT HEAD =           0.0000
            ZONE CHANGE =       7.0874E-05           ZONE CHANGE =       1.2337E-04
       ZONE CHG TIP/TOE =       3.5242E-07      ZONE CHG TIP/TOE =       1.5539E-06
            ZONE MIXING =           0.0000           ZONE MIXING =           0.0000

              TOTAL OUT =       3.2390E-02             TOTAL OUT =           0.1643

               IN - OUT =       7.8604E-07              IN - OUT =      -1.1176E-06

    PERCENT DISCREPANCY =           0.00     PERCENT DISCREPANCY =          -0.00



                      VOLUMETRIC SWI ZONE BUDGET FOR ENTIRE MODEL
                     AT END OF TIME STEP  162 IN STRESS PERIOD   1
                                      ZONE     2
  -----------------------------------------------------------------------------------

        CUMULATIVE VOLUMES      L**3       RATES FOR THIS TIME STEP      L**3/T
        ------------------                 ------------------------

              IN:                                      IN:
              ---                                      ---
             BOUNDARIES =       1.2762E-13            BOUNDARIES =       6.5428E-13
          CONSTANT HEAD =       1.6054E-03         CONSTANT HEAD =       4.5773E-03
            ZONE CHANGE =       6.7645E-05           ZONE CHANGE =       1.1655E-04
       ZONE CHG TIP/TOE =       3.5242E-07      ZONE CHG TIP/TOE =       1.5539E-06
            ZONE MIXING =           0.0000           ZONE MIXING =           0.0000

               TOTAL IN =       1.6734E-03              TOTAL IN =       4.6954E-03

             OUT:                                     OUT:
             ----                                     ----
             BOUNDARIES =       1.2705E-13            BOUNDARIES =       6.4275E-13
          CONSTANT HEAD =           0.0000         CONSTANT HEAD =           0.0000
            ZONE CHANGE =       1.6573E-03           ZONE CHANGE =       4.6881E-03
       ZONE CHG TIP/TOE =       1.6855E-05      ZONE CHG TIP/TOE =       5.7289E-06
            ZONE MIXING =           0.0000           ZONE MIXING =           0.0000

              TOTAL OUT =       1.6741E-03             TOTAL OUT =       4.6938E-03

               IN - OUT =      -7.1805E-07              IN - OUT =       1.5600E-06

    PERCENT DISCREPANCY =          -0.04     PERCENT DISCREPANCY =           0.03


 HEAD WILL BE SAVED ON UNIT   51 AT END OF TIME STEP  162, STRESS PERIOD    1
1
  VOLUMETRIC BUDGET FOR ENTIRE MODEL AT END OF TIME STEP  162, STRESS PERIOD   1
  ------------------------------------------------------------------------------

     CUMULATIVE VOLUMES      L**3       RATES FOR THIS TIME STEP      L**3/T
     ------------------                 ------------------------

           IN:                                      IN:
           ---                                      ---
             STORAGE =       6.9535E-05               STORAGE =       1.4644E-05
       CONSTANT HEAD =       3.2250E-02         CONSTANT HEAD =           0.1641
               WELLS =           0.0000                 WELLS =           0.0000
          SWIADDTOCH =           0.0000            SWIADDTOCH =           0.0000

            TOTAL IN =       3.2319E-02              TOTAL IN =           0.1642

          OUT:                                     OUT:
          ----                                     ----
             STORAGE =       7.8327E-10               STORAGE =       7.6333E-09
       CONSTANT HEAD =           0.0000         CONSTANT HEAD =           0.0000
               WELLS =       3.2319E-02                 WELLS =           0.1642
          SWIADDTOCH =       1.1616E-09            SWIADDTOCH =           0.0000

           TOTAL OUT =       3.2319E-02             TOTAL OUT =           0.1642

            IN - OUT =      -1.4901E-08              IN - OUT =       8.9407E-08

 PERCENT DISCREPANCY =          -0.00     PERCENT DISCREPANCY =           0.00






         TIME SUMMARY AT END OF TIME STEP  162 IN STRESS PERIOD    1
                    SECONDS     MINUTES      HOURS       DAYS        YEARS
                    -----------------------------------------------------------
   TIME STEP LENGTH  105.00      1.7500     2.91667E-02 1.21528E-03 3.32726E-06
 STRESS PERIOD TIME  17010.      283.50      4.7250     0.19688     5.39015E-04
         TOTAL TIME  17010.      283.50      4.7250     0.19688     5.39015E-04
1

 SOLVING FOR HEAD 
     2 EXTERNAL ITERATIONS FOR TIME STEP 163 IN STRESS PERIOD    1

 MAXIMUM HEAD CHANGE FOR EACH ITERATION:

     HEAD CHANGE  LAY,ROW,COL      HEAD CHANGE  LAY,ROW,COL  
 ------------------------------------------------------------
    -1.988E-05 (  6,    1, 1000)  -1.989E-07 (  6,    1, 1000)



 OUTPUT CONTROL FOR STRESS PERIOD    1   TIME STEP  163
    PRINT BUDGET
    SAVE HEAD FOR ALL LAYERS
 SOLVING FOR ZETA FOR LAYER     6 ZONE     2

     496 UPPER PART EQS.       497 LOWER PART EQS.    BAND WIDTH + 1 =    4
 STRESS PERIOD=  1 TIMESTEP=163 LAYER=  6 ZONE=  2 ACTIVE CELLS=  993 NUMBER OF EQUATIONS=     993
 UBUDSV SAVING "      ZETASRF  1" ON UNIT 55 AT TIME STEP163, STRESS PERIOD    1


                      VOLUMETRIC SWI ZONE BUDGET FOR ENTIRE MODEL
                     AT END OF TIME STEP  163 IN STRESS PERIOD   1
                                      ZONE     1
  -----------------------------------------------------------------------------------

        CUMULATIVE VOLUMES      L**3       RATES FOR THIS TIME STEP      L**3/T
        ------------------                 ------------------------

              IN:                                      IN:
              ---                                      ---
             BOUNDARIES =       3.2913E-08            BOUNDARIES =       1.7744E-07
          CONSTANT HEAD =       3.0838E-02         CONSTANT HEAD =           0.1596
            ZONE CHANGE =       1.7325E-03           ZONE CHANGE =       4.6495E-03
       ZONE CHG TIP/TOE =       2.0091E-05      ZONE CHG TIP/TOE =       6.9044E-06
            ZONE MIXING =           0.0000           ZONE MIXING =           0.0000

               TOTAL IN =       3.2591E-02              TOTAL IN =           0.1643

             OUT:                                     OUT:
             ----                                     ----
             BOUNDARIES =       3.2519E-02            BOUNDARIES =           0.1642
          CONSTANT HEAD =           0.0000         CONSTANT HEAD =           0.0000
            ZONE CHANGE =       7.0993E-05           ZONE CHANGE =       9.8320E-05
       ZONE CHG TIP/TOE =       3.5508E-07      ZONE CHG TIP/TOE =       2.1958E-06
            ZONE MIXING =           0.0000           ZONE MIXING =           0.0000

              TOTAL OUT =       3.2590E-02             TOTAL OUT =           0.1643

               IN - OUT =       7.7859E-07              IN - OUT =      -7.6443E-06

    PERCENT DISCREPANCY =           0.00     PERCENT DISCREPANCY =          -0.00



                      VOLUMETRIC SWI ZONE BUDGET FOR ENTIRE MODEL
                     AT END OF TIME STEP  163 IN STRESS PERIOD   1
                                      ZONE     2
  -----------------------------------------------------------------------------------

        CUMULATIVE VOLUMES      L**3       RATES FOR THIS TIME STEP      L**3/T
        ------------------                 ------------------------

              IN:                                      IN:
              ---                                      ---
             BOUNDARIES =       1.2844E-13            BOUNDARIES =       6.7162E-13
          CONSTANT HEAD =       1.6109E-03         CONSTANT HEAD =       4.5488E-03
            ZONE CHANGE =       6.7757E-05           ZONE CHANGE =       9.2251E-05
       ZONE CHG TIP/TOE =       3.5508E-07      ZONE CHG TIP/TOE =       2.1958E-06
            ZONE MIXING =           0.0000           ZONE MIXING =           0.0000

               TOTAL IN =       1.6790E-03              TOTAL IN =       4.6432E-03

             OUT:                                     OUT:
             ----                                     ----
             BOUNDARIES =       1.2786E-13            BOUNDARIES =       6.6224E-13
          CONSTANT HEAD =           0.0000         CONSTANT HEAD =           0.0000
            ZONE CHANGE =       1.6629E-03           ZONE CHANGE =       4.6343E-03
       ZONE CHG TIP/TOE =       1.6856E-05      ZONE CHG TIP/TOE =       8.3490E-07
            ZONE MIXING =           0.0000           ZONE MIXING =           0.0000

              TOTAL OUT =       1.6797E-03             TOTAL OUT =       4.6351E-03

               IN - OUT =      -7.0827E-07              IN - OUT =       8.0825E-06

    PERCENT DISCREPANCY =          -0.04     PERCENT DISCREPANCY =           0.17


 HEAD WILL BE SAVED ON UNIT   51 AT END OF TIME STEP  163, STRESS PERIOD    1
1
  VOLUMETRIC BUDGET FOR ENTIRE MODEL AT END OF TIME STEP  163, STRESS PERIOD   1
  ------------------------------------------------------------------------------

     CUMULATIVE VOLUMES      L**3       RATES FOR THIS TIME STEP      L**3/T
     ------------------                 ------------------------

           IN:                                      IN:
           ---                                      ---
             STORAGE =       6.9553E-05               STORAGE =       1.4943E-05
       CONSTANT HEAD =       3.2449E-02         CONSTANT HEAD =           0.1641
               WELLS =           0.0000                 WELLS =           0.0000
          SWIADDTOCH =           0.0000            SWIADDTOCH =           0.0000

            TOTAL IN =       3.2519E-02              TOTAL IN =           0.1642

          OUT:                                     OUT:
          ----                                     ----
             STORAGE =       7.8914E-10               STORAGE =       4.8294E-09
       CONSTANT HEAD =           0.0000         CONSTANT HEAD =           0.0000
               WELLS =       3.2519E-02                 WELLS =           0.1642
          SWIADDTOCH =       1.1616E-09            SWIADDTOCH =           0.0000

           TOTAL OUT =       3.2519E-02             TOTAL OUT =           0.1642

            IN - OUT =      -1.8626E-08              IN - OUT =       1.0431E-07

 PERCENT DISCREPANCY =          -0.00     PERCENT DISCREPANCY =           0.00






         TIME SUMMARY AT END OF TIME STEP  163 IN STRESS PERIOD    1
                    SECONDS     MINUTES      HOURS       DAYS        YEARS
                    -----------------------------------------------------------
   TIME STEP LENGTH  105.00      1.7500     2.91667E-02 1.21528E-03 3.32726E-06
 STRESS PERIOD TIME  17115.      285.25      4.7542     0.19809     5.42342E-04
         TOTAL TIME  17115.      285.25      4.7542     0.19809     5.42342E-04
1

 SOLVING FOR HEAD 
     2 EXTERNAL ITERATIONS FOR TIME STEP 164 IN STRESS PERIOD    1

 MAXIMUM HEAD CHANGE FOR EACH ITERATION:

     HEAD CHANGE  LAY,ROW,COL      HEAD CHANGE  LAY,ROW,COL  
 ------------------------------------------------------------
    -1.935E-05 (  6,    1, 1000)  -1.841E-07 (  6,    1,  999)



 OUTPUT CONTROL FOR STRESS PERIOD    1   TIME STEP  164
    PRINT BUDGET
    SAVE HEAD FOR ALL LAYERS
 SOLVING FOR ZETA FOR LAYER     6 ZONE     2

     494 UPPER PART EQS.       498 LOWER PART EQS.    BAND WIDTH + 1 =    3
 STRESS PERIOD=  1 TIMESTEP=164 LAYER=  6 ZONE=  2 ACTIVE CELLS=  992 NUMBER OF EQUATIONS=     992
 UBUDSV SAVING "      ZETASRF  1" ON UNIT 55 AT TIME STEP164, STRESS PERIOD    1


                      VOLUMETRIC SWI ZONE BUDGET FOR ENTIRE MODEL
                     AT END OF TIME STEP  164 IN STRESS PERIOD   1
                                      ZONE     1
  -----------------------------------------------------------------------------------

        CUMULATIVE VOLUMES      L**3       RATES FOR THIS TIME STEP      L**3/T
        ------------------                 ------------------------

              IN:                                      IN:
              ---                                      ---
             BOUNDARIES =       3.3107E-08            BOUNDARIES =       1.6020E-07
          CONSTANT HEAD =       3.1032E-02         CONSTANT HEAD =           0.1596
            ZONE CHANGE =       1.7381E-03           ZONE CHANGE =       4.6003E-03
       ZONE CHG TIP/TOE =       2.0097E-05      ZONE CHG TIP/TOE =       4.3282E-06
            ZONE MIXING =           0.0000           ZONE MIXING =           0.0000

               TOTAL IN =       3.2790E-02              TOTAL IN =           0.1642

             OUT:                                     OUT:
             ----                                     ----
             BOUNDARIES =       3.2718E-02            BOUNDARIES =           0.1642
          CONSTANT HEAD =           0.0000         CONSTANT HEAD =           0.0000
            ZONE CHANGE =       7.1096E-05           ZONE CHANGE =       8.4410E-05
       ZONE CHG TIP/TOE =       3.5823E-07      ZONE CHG TIP/TOE =       2.5870E-06
            ZONE MIXING =           0.0000           ZONE MIXING =           0.0000

              TOTAL OUT =       3.2790E-02             TOTAL OUT =           0.1642

               IN - OUT =       7.6368E-07              IN - OUT =      -1.2964E-05

    PERCENT DISCREPANCY =           0.00     PERCENT DISCREPANCY =          -0.01



                      VOLUMETRIC SWI ZONE BUDGET FOR ENTIRE MODEL
                     AT END OF TIME STEP  164 IN STRESS PERIOD   1
                                      ZONE     2
  -----------------------------------------------------------------------------------

        CUMULATIVE VOLUMES      L**3       RATES FOR THIS TIME STEP      L**3/T
        ------------------                 ------------------------

              IN:                                      IN:
              ---                                      ---
             BOUNDARIES =       1.2922E-13            BOUNDARIES =       6.4518E-13
          CONSTANT HEAD =       1.6164E-03         CONSTANT HEAD =       4.5164E-03
            ZONE CHANGE =       6.7856E-05           ZONE CHANGE =       8.1015E-05
       ZONE CHG TIP/TOE =       3.5823E-07      ZONE CHG TIP/TOE =       2.5870E-06
            ZONE MIXING =           0.0000           ZONE MIXING =           0.0000

               TOTAL IN =       1.6846E-03              TOTAL IN =       4.6000E-03

             OUT:                                     OUT:
             ----                                     ----
             BOUNDARIES =       1.2863E-13            BOUNDARIES =       6.3660E-13
          CONSTANT HEAD =           0.0000         CONSTANT HEAD =           0.0000
            ZONE CHANGE =       1.6685E-03           ZONE CHANGE =       4.5857E-03
       ZONE CHG TIP/TOE =       1.6857E-05      ZONE CHG TIP/TOE =       9.3299E-07
            ZONE MIXING =           0.0000           ZONE MIXING =           0.0000

              TOTAL OUT =       1.6853E-03             TOTAL OUT =       4.5866E-03

               IN - OUT =      -6.9209E-07              IN - OUT =       1.3390E-05

    PERCENT DISCREPANCY =          -0.04     PERCENT DISCREPANCY =           0.29


 HEAD WILL BE SAVED ON UNIT   51 AT END OF TIME STEP  164, STRESS PERIOD    1
1
  VOLUMETRIC BUDGET FOR ENTIRE MODEL AT END OF TIME STEP  164, STRESS PERIOD   1
  ------------------------------------------------------------------------------

     CUMULATIVE VOLUMES      L**3       RATES FOR THIS TIME STEP      L**3/T
     ------------------                 ------------------------

           IN:                                      IN:
           ---                                      ---
             STORAGE =       6.9570E-05               STORAGE =       1.4326E-05
       CONSTANT HEAD =       3.2648E-02         CONSTANT HEAD =           0.1641
               WELLS =           0.0000                 WELLS =           0.0000
          SWIADDTOCH =           0.0000            SWIADDTOCH =           0.0000

            TOTAL IN =       3.2718E-02              TOTAL IN =           0.1642

          OUT:                                     OUT:
          ----                                     ----
             STORAGE =       7.9730E-10               STORAGE =       6.7132E-09
       CONSTANT HEAD =           0.0000         CONSTANT HEAD =           0.0000
               WELLS =       3.2718E-02                 WELLS =           0.1642
          SWIADDTOCH =       1.1616E-09            SWIADDTOCH =           0.0000

           TOTAL OUT =       3.2718E-02             TOTAL OUT =           0.1642

            IN - OUT =      -1.8626E-08              IN - OUT =       1.3411E-07

 PERCENT DISCREPANCY =          -0.00     PERCENT DISCREPANCY =           0.00






         TIME SUMMARY AT END OF TIME STEP  164 IN STRESS PERIOD    1
                    SECONDS     MINUTES      HOURS       DAYS        YEARS
                    -----------------------------------------------------------
   TIME STEP LENGTH  105.00      1.7500     2.91667E-02 1.21528E-03 3.32726E-06
 STRESS PERIOD TIME  17220.      287.00      4.7833     0.19931     5.45670E-04
         TOTAL TIME  17220.      287.00      4.7833     0.19931     5.45670E-04
1

 SOLVING FOR HEAD 
     2 EXTERNAL ITERATIONS FOR TIME STEP 165 IN STRESS PERIOD    1

 MAXIMUM HEAD CHANGE FOR EACH ITERATION:

     HEAD CHANGE  LAY,ROW,COL      HEAD CHANGE  LAY,ROW,COL  
 ------------------------------------------------------------
    -1.966E-05 (  6,    1, 1000)  -1.904E-07 (  6,    1,  999)



 OUTPUT CONTROL FOR STRESS PERIOD    1   TIME STEP  165
    PRINT BUDGET
    SAVE HEAD FOR ALL LAYERS
 SOLVING FOR ZETA FOR LAYER     6 ZONE     2

     498 UPPER PART EQS.       497 LOWER PART EQS.    BAND WIDTH + 1 =    3
 STRESS PERIOD=  1 TIMESTEP=165 LAYER=  6 ZONE=  2 ACTIVE CELLS=  995 NUMBER OF EQUATIONS=     995
 UBUDSV SAVING "      ZETASRF  1" ON UNIT 55 AT TIME STEP165, STRESS PERIOD    1


                      VOLUMETRIC SWI ZONE BUDGET FOR ENTIRE MODEL
                     AT END OF TIME STEP  165 IN STRESS PERIOD   1
                                      ZONE     1
  -----------------------------------------------------------------------------------

        CUMULATIVE VOLUMES      L**3       RATES FOR THIS TIME STEP      L**3/T
        ------------------                 ------------------------

              IN:                                      IN:
              ---                                      ---
             BOUNDARIES =       3.3322E-08            BOUNDARIES =       1.7666E-07
          CONSTANT HEAD =       3.1226E-02         CONSTANT HEAD =           0.1597
            ZONE CHANGE =       1.7437E-03           ZONE CHANGE =       4.6020E-03
       ZONE CHG TIP/TOE =       2.0110E-05      ZONE CHG TIP/TOE =       1.0944E-05
            ZONE MIXING =           0.0000           ZONE MIXING =           0.0000

               TOTAL IN =       3.2990E-02              TOTAL IN =           0.1643

             OUT:                                     OUT:
             ----                                     ----
             BOUNDARIES =       3.2918E-02            BOUNDARIES =           0.1642
          CONSTANT HEAD =           0.0000         CONSTANT HEAD =           0.0000
            ZONE CHANGE =       7.1230E-05           ZONE CHANGE =       1.1032E-04
       ZONE CHG TIP/TOE =       3.5882E-07      ZONE CHG TIP/TOE =       4.8926E-07
            ZONE MIXING =           0.0000           ZONE MIXING =           0.0000

              TOTAL OUT =       3.2989E-02             TOTAL OUT =           0.1643

               IN - OUT =       7.6368E-07              IN - OUT =       1.5944E-06

    PERCENT DISCREPANCY =           0.00     PERCENT DISCREPANCY =           0.00



                      VOLUMETRIC SWI ZONE BUDGET FOR ENTIRE MODEL
                     AT END OF TIME STEP  165 IN STRESS PERIOD   1
                                      ZONE     2
  -----------------------------------------------------------------------------------

        CUMULATIVE VOLUMES      L**3       RATES FOR THIS TIME STEP      L**3/T
        ------------------                 ------------------------

              IN:                                      IN:
              ---                                      ---
             BOUNDARIES =       1.3004E-13            BOUNDARIES =       6.7715E-13
          CONSTANT HEAD =       1.6219E-03         CONSTANT HEAD =       4.4863E-03
            ZONE CHANGE =       6.7979E-05           ZONE CHANGE =       1.0105E-04
       ZONE CHG TIP/TOE =       3.5882E-07      ZONE CHG TIP/TOE =       4.8926E-07
            ZONE MIXING =           0.0000           ZONE MIXING =           0.0000

               TOTAL IN =       1.6902E-03              TOTAL IN =       4.5879E-03

             OUT:                                     OUT:
             ----                                     ----
             BOUNDARIES =       1.2941E-13            BOUNDARIES =       6.4301E-13
          CONSTANT HEAD =           0.0000         CONSTANT HEAD =           0.0000
            ZONE CHANGE =       1.6740E-03           ZONE CHANGE =       4.5874E-03
       ZONE CHG TIP/TOE =       1.6859E-05      ZONE CHG TIP/TOE =       1.6714E-06
            ZONE MIXING =           0.0000           ZONE MIXING =           0.0000

              TOTAL OUT =       1.6909E-03             TOTAL OUT =       4.5890E-03

               IN - OUT =      -6.9337E-07              IN - OUT =      -1.1697E-06

    PERCENT DISCREPANCY =          -0.04     PERCENT DISCREPANCY =          -0.03


 HEAD WILL BE SAVED ON UNIT   51 AT END OF TIME STEP  165, STRESS PERIOD    1
1
  VOLUMETRIC BUDGET FOR ENTIRE MODEL AT END OF TIME STEP  165, STRESS PERIOD   1
  ------------------------------------------------------------------------------

     CUMULATIVE VOLUMES      L**3       RATES FOR THIS TIME STEP      L**3/T
     ------------------                 ------------------------

           IN:                                      IN:
           ---                                      ---
             STORAGE =       6.9588E-05               STORAGE =       1.4368E-05
       CONSTANT HEAD =       3.2848E-02         CONSTANT HEAD =           0.1641
               WELLS =           0.0000                 WELLS =           0.0000
          SWIADDTOCH =           0.0000            SWIADDTOCH =           0.0000

            TOTAL IN =       3.2918E-02              TOTAL IN =           0.1642

          OUT:                                     OUT:
          ----                                     ----
             STORAGE =       8.0431E-10               STORAGE =       5.7652E-09
       CONSTANT HEAD =           0.0000         CONSTANT HEAD =           0.0000
               WELLS =       3.2918E-02                 WELLS =           0.1642
          SWIADDTOCH =       1.2457E-09            SWIADDTOCH =       6.9208E-08

           TOTAL OUT =       3.2918E-02             TOTAL OUT =           0.1642

            IN - OUT =      -1.8626E-08              IN - OUT =       1.0431E-07

 PERCENT DISCREPANCY =          -0.00     PERCENT DISCREPANCY =           0.00






         TIME SUMMARY AT END OF TIME STEP  165 IN STRESS PERIOD    1
                    SECONDS     MINUTES      HOURS       DAYS        YEARS
                    -----------------------------------------------------------
   TIME STEP LENGTH  105.00      1.7500     2.91667E-02 1.21528E-03 3.32726E-06
 STRESS PERIOD TIME  17325.      288.75      4.8125     0.20052     5.48997E-04
         TOTAL TIME  17325.      288.75      4.8125     0.20052     5.48997E-04
1

 SOLVING FOR HEAD 
     2 EXTERNAL ITERATIONS FOR TIME STEP 166 IN STRESS PERIOD    1

 MAXIMUM HEAD CHANGE FOR EACH ITERATION:

     HEAD CHANGE  LAY,ROW,COL      HEAD CHANGE  LAY,ROW,COL  
 ------------------------------------------------------------
    -1.970E-05 (  6,    1, 1000)  -1.900E-07 (  6,    1,  999)



 OUTPUT CONTROL FOR STRESS PERIOD    1   TIME STEP  166
    PRINT BUDGET
    SAVE HEAD FOR ALL LAYERS
 SOLVING FOR ZETA FOR LAYER     6 ZONE     2

     497 UPPER PART EQS.       497 LOWER PART EQS.    BAND WIDTH + 1 =    3
 STRESS PERIOD=  1 TIMESTEP=166 LAYER=  6 ZONE=  2 ACTIVE CELLS=  994 NUMBER OF EQUATIONS=     994
 UBUDSV SAVING "      ZETASRF  1" ON UNIT 55 AT TIME STEP166, STRESS PERIOD    1


                      VOLUMETRIC SWI ZONE BUDGET FOR ENTIRE MODEL
                     AT END OF TIME STEP  166 IN STRESS PERIOD   1
                                      ZONE     1
  -----------------------------------------------------------------------------------

        CUMULATIVE VOLUMES      L**3       RATES FOR THIS TIME STEP      L**3/T
        ------------------                 ------------------------

              IN:                                      IN:
              ---                                      ---
             BOUNDARIES =       3.3534E-08            BOUNDARIES =       1.7460E-07
          CONSTANT HEAD =       3.1420E-02         CONSTANT HEAD =           0.1597
            ZONE CHANGE =       1.7493E-03           ZONE CHANGE =       4.6073E-03
       ZONE CHG TIP/TOE =       2.0131E-05      ZONE CHG TIP/TOE =       1.7290E-05
            ZONE MIXING =           0.0000           ZONE MIXING =           0.0000

               TOTAL IN =       3.3190E-02              TOTAL IN =           0.1643

             OUT:                                     OUT:
             ----                                     ----
             BOUNDARIES =       3.3117E-02            BOUNDARIES =           0.1642
          CONSTANT HEAD =           0.0000         CONSTANT HEAD =           0.0000
            ZONE CHANGE =       7.1400E-05           ZONE CHANGE =       1.4013E-04
       ZONE CHG TIP/TOE =       3.6162E-07      ZONE CHG TIP/TOE =       2.2984E-06
            ZONE MIXING =           0.0000           ZONE MIXING =           0.0000

              TOTAL OUT =       3.3189E-02             TOTAL OUT =           0.1643

               IN - OUT =       7.8231E-07              IN - OUT =       1.1995E-05

    PERCENT DISCREPANCY =           0.00     PERCENT DISCREPANCY =           0.01



                      VOLUMETRIC SWI ZONE BUDGET FOR ENTIRE MODEL
                     AT END OF TIME STEP  166 IN STRESS PERIOD   1
                                      ZONE     2
  -----------------------------------------------------------------------------------

        CUMULATIVE VOLUMES      L**3       RATES FOR THIS TIME STEP      L**3/T
        ------------------                 ------------------------

              IN:                                      IN:
              ---                                      ---
             BOUNDARIES =       1.3085E-13            BOUNDARIES =       6.5975E-13
          CONSTANT HEAD =       1.6273E-03         CONSTANT HEAD =       4.4559E-03
            ZONE CHANGE =       6.8130E-05           ZONE CHANGE =       1.2442E-04
       ZONE CHG TIP/TOE =       3.6162E-07      ZONE CHG TIP/TOE =       2.2984E-06
            ZONE MIXING =           0.0000           ZONE MIXING =           0.0000

               TOTAL IN =       1.6958E-03              TOTAL IN =       4.5827E-03

             OUT:                                     OUT:
             ----                                     ----
             BOUNDARIES =       1.3017E-13            BOUNDARIES =       6.1994E-13
          CONSTANT HEAD =           0.0000         CONSTANT HEAD =           0.0000
            ZONE CHANGE =       1.6796E-03           ZONE CHANGE =       4.5926E-03
       ZONE CHG TIP/TOE =       1.6861E-05      ZONE CHG TIP/TOE =       1.5813E-06
            ZONE MIXING =           0.0000           ZONE MIXING =           0.0000

              TOTAL OUT =       1.6965E-03             TOTAL OUT =       4.5942E-03

               IN - OUT =      -7.0734E-07              IN - OUT =      -1.1553E-05

    PERCENT DISCREPANCY =          -0.04     PERCENT DISCREPANCY =          -0.25


 HEAD WILL BE SAVED ON UNIT   51 AT END OF TIME STEP  166, STRESS PERIOD    1
1
  VOLUMETRIC BUDGET FOR ENTIRE MODEL AT END OF TIME STEP  166, STRESS PERIOD   1
  ------------------------------------------------------------------------------

     CUMULATIVE VOLUMES      L**3       RATES FOR THIS TIME STEP      L**3/T
     ------------------                 ------------------------

           IN:                                      IN:
           ---                                      ---
             STORAGE =       6.9605E-05               STORAGE =       1.4371E-05
       CONSTANT HEAD =       3.3047E-02         CONSTANT HEAD =           0.1641
               WELLS =           0.0000                 WELLS =           0.0000
          SWIADDTOCH =           0.0000            SWIADDTOCH =           0.0000

            TOTAL IN =       3.3117E-02              TOTAL IN =           0.1642

          OUT:                                     OUT:
          ----                                     ----
             STORAGE =       8.1018E-10               STORAGE =       4.8317E-09
       CONSTANT HEAD =           0.0000         CONSTANT HEAD =           0.0000
               WELLS =       3.3117E-02                 WELLS =           0.1642
          SWIADDTOCH =       1.2457E-09            SWIADDTOCH =           0.0000

           TOTAL OUT =       3.3117E-02             TOTAL OUT =           0.1642

            IN - OUT =      -1.8626E-08              IN - OUT =       1.1921E-07

 PERCENT DISCREPANCY =          -0.00     PERCENT DISCREPANCY =           0.00






         TIME SUMMARY AT END OF TIME STEP  166 IN STRESS PERIOD    1
                    SECONDS     MINUTES      HOURS       DAYS        YEARS
                    -----------------------------------------------------------
   TIME STEP LENGTH  105.00      1.7500     2.91667E-02 1.21528E-03 3.32726E-06
 STRESS PERIOD TIME  17430.      290.50      4.8417     0.20174     5.52324E-04
         TOTAL TIME  17430.      290.50      4.8417     0.20174     5.52324E-04
1

 SOLVING FOR HEAD 
     2 EXTERNAL ITERATIONS FOR TIME STEP 167 IN STRESS PERIOD    1

 MAXIMUM HEAD CHANGE FOR EACH ITERATION:

     HEAD CHANGE  LAY,ROW,COL      HEAD CHANGE  LAY,ROW,COL  
 ------------------------------------------------------------
    -1.972E-05 (  6,    1, 1000)  -1.893E-07 (  6,    1,  999)



 OUTPUT CONTROL FOR STRESS PERIOD    1   TIME STEP  167
    PRINT BUDGET
    SAVE HEAD FOR ALL LAYERS
 SOLVING FOR ZETA FOR LAYER     6 ZONE     2

     496 UPPER PART EQS.       496 LOWER PART EQS.    BAND WIDTH + 1 =    3
 STRESS PERIOD=  1 TIMESTEP=167 LAYER=  6 ZONE=  2 ACTIVE CELLS=  992 NUMBER OF EQUATIONS=     992
 UBUDSV SAVING "      ZETASRF  1" ON UNIT 55 AT TIME STEP167, STRESS PERIOD    1


                      VOLUMETRIC SWI ZONE BUDGET FOR ENTIRE MODEL
                     AT END OF TIME STEP  167 IN STRESS PERIOD   1
                                      ZONE     1
  -----------------------------------------------------------------------------------

        CUMULATIVE VOLUMES      L**3       RATES FOR THIS TIME STEP      L**3/T
        ------------------                 ------------------------

              IN:                                      IN:
              ---                                      ---
             BOUNDARIES =       3.3729E-08            BOUNDARIES =       1.5997E-07
          CONSTANT HEAD =       3.1614E-02         CONSTANT HEAD =           0.1597
            ZONE CHANGE =       1.7552E-03           ZONE CHANGE =       4.8499E-03
       ZONE CHG TIP/TOE =       2.0163E-05      ZONE CHG TIP/TOE =       2.6603E-05
            ZONE MIXING =           0.0000           ZONE MIXING =           0.0000

               TOTAL IN =       3.3390E-02              TOTAL IN =           0.1646

             OUT:                                     OUT:
             ----                                     ----
             BOUNDARIES =       3.3317E-02            BOUNDARIES =           0.1642
          CONSTANT HEAD =           0.0000         CONSTANT HEAD =           0.0000
            ZONE CHANGE =       7.1906E-05           ZONE CHANGE =       4.1659E-04
       ZONE CHG TIP/TOE =       3.6268E-07      ZONE CHG TIP/TOE =       8.7498E-07
            ZONE MIXING =           0.0000           ZONE MIXING =           0.0000

              TOTAL OUT =       3.3389E-02             TOTAL OUT =           0.1646

               IN - OUT =       8.0839E-07              IN - OUT =       1.9357E-05

    PERCENT DISCREPANCY =           0.00     PERCENT DISCREPANCY =           0.01



                      VOLUMETRIC SWI ZONE BUDGET FOR ENTIRE MODEL
                     AT END OF TIME STEP  167 IN STRESS PERIOD   1
                                      ZONE     2
  -----------------------------------------------------------------------------------

        CUMULATIVE VOLUMES      L**3       RATES FOR THIS TIME STEP      L**3/T
        ------------------                 ------------------------

              IN:                                      IN:
              ---                                      ---
             BOUNDARIES =       1.3163E-13            BOUNDARIES =       6.4880E-13
          CONSTANT HEAD =       1.6327E-03         CONSTANT HEAD =       4.4255E-03
            ZONE CHANGE =       6.8609E-05           ZONE CHANGE =       3.9390E-04
       ZONE CHG TIP/TOE =       3.6268E-07      ZONE CHG TIP/TOE =       8.7498E-07
            ZONE MIXING =           0.0000           ZONE MIXING =           0.0000

               TOTAL IN =       1.7016E-03              TOTAL IN =       4.8203E-03

             OUT:                                     OUT:
             ----                                     ----
             BOUNDARIES =       1.3093E-13            BOUNDARIES =       6.2984E-13
          CONSTANT HEAD =           0.0000         CONSTANT HEAD =           0.0000
            ZONE CHANGE =       1.6855E-03           ZONE CHANGE =       4.8353E-03
       ZONE CHG TIP/TOE =       1.6865E-05      ZONE CHG TIP/TOE =       3.9141E-06
            ZONE MIXING =           0.0000           ZONE MIXING =           0.0000

              TOTAL OUT =       1.7024E-03             TOTAL OUT =       4.8392E-03

               IN - OUT =      -7.3039E-07              IN - OUT =      -1.8917E-05

    PERCENT DISCREPANCY =          -0.04     PERCENT DISCREPANCY =          -0.39


 HEAD WILL BE SAVED ON UNIT   51 AT END OF TIME STEP  167, STRESS PERIOD    1
1
  VOLUMETRIC BUDGET FOR ENTIRE MODEL AT END OF TIME STEP  167, STRESS PERIOD   1
  ------------------------------------------------------------------------------

     CUMULATIVE VOLUMES      L**3       RATES FOR THIS TIME STEP      L**3/T
     ------------------                 ------------------------

           IN:                                      IN:
           ---                                      ---
             STORAGE =       6.9623E-05               STORAGE =       1.4340E-05
       CONSTANT HEAD =       3.3247E-02         CONSTANT HEAD =           0.1641
               WELLS =           0.0000                 WELLS =           0.0000
          SWIADDTOCH =           0.0000            SWIADDTOCH =           0.0000

            TOTAL IN =       3.3317E-02              TOTAL IN =           0.1642

          OUT:                                     OUT:
          ----                                     ----
             STORAGE =       8.1832E-10               STORAGE =       6.6936E-09
       CONSTANT HEAD =           0.0000         CONSTANT HEAD =           0.0000
               WELLS =       3.3317E-02                 WELLS =           0.1642
          SWIADDTOCH =       1.2457E-09            SWIADDTOCH =           0.0000

           TOTAL OUT =       3.3317E-02             TOTAL OUT =           0.1642

            IN - OUT =      -2.2352E-08              IN - OUT =       1.3411E-07

 PERCENT DISCREPANCY =          -0.00     PERCENT DISCREPANCY =           0.00






         TIME SUMMARY AT END OF TIME STEP  167 IN STRESS PERIOD    1
                    SECONDS     MINUTES      HOURS       DAYS        YEARS
                    -----------------------------------------------------------
   TIME STEP LENGTH  105.00      1.7500     2.91667E-02 1.21528E-03 3.32726E-06
 STRESS PERIOD TIME  17535.      292.25      4.8708     0.20295     5.55651E-04
         TOTAL TIME  17535.      292.25      4.8708     0.20295     5.55651E-04
1

 SOLVING FOR HEAD 
     2 EXTERNAL ITERATIONS FOR TIME STEP 168 IN STRESS PERIOD    1

 MAXIMUM HEAD CHANGE FOR EACH ITERATION:

     HEAD CHANGE  LAY,ROW,COL      HEAD CHANGE  LAY,ROW,COL  
 ------------------------------------------------------------
    -1.977E-05 (  6,    1, 1000)  -1.890E-07 (  6,    1, 1000)



 OUTPUT CONTROL FOR STRESS PERIOD    1   TIME STEP  168
    PRINT BUDGET
    SAVE HEAD FOR ALL LAYERS
 SOLVING FOR ZETA FOR LAYER     6 ZONE     2

     495 UPPER PART EQS.       497 LOWER PART EQS.    BAND WIDTH + 1 =    4
 STRESS PERIOD=  1 TIMESTEP=168 LAYER=  6 ZONE=  2 ACTIVE CELLS=  992 NUMBER OF EQUATIONS=     992
 UBUDSV SAVING "      ZETASRF  1" ON UNIT 55 AT TIME STEP168, STRESS PERIOD    1


                      VOLUMETRIC SWI ZONE BUDGET FOR ENTIRE MODEL
                     AT END OF TIME STEP  168 IN STRESS PERIOD   1
                                      ZONE     1
  -----------------------------------------------------------------------------------

        CUMULATIVE VOLUMES      L**3       RATES FOR THIS TIME STEP      L**3/T
        ------------------                 ------------------------

              IN:                                      IN:
              ---                                      ---
             BOUNDARIES =       3.3934E-08            BOUNDARIES =       1.6876E-07
          CONSTANT HEAD =       3.1808E-02         CONSTANT HEAD =           0.1597
            ZONE CHANGE =       1.7610E-03           ZONE CHANGE =       4.7883E-03
       ZONE CHG TIP/TOE =       2.0206E-05      ZONE CHG TIP/TOE =       3.5134E-05
            ZONE MIXING =           0.0000           ZONE MIXING =           0.0000

               TOTAL IN =       3.3590E-02              TOTAL IN =           0.1646

             OUT:                                     OUT:
             ----                                     ----
             BOUNDARIES =       3.3516E-02            BOUNDARIES =           0.1642
          CONSTANT HEAD =           0.0000         CONSTANT HEAD =           0.0000
            ZONE CHANGE =       7.2378E-05           ZONE CHANGE =       3.8806E-04
       ZONE CHG TIP/TOE =       3.6444E-07      ZONE CHG TIP/TOE =       1.4472E-06
            ZONE MIXING =           0.0000           ZONE MIXING =           0.0000

              TOTAL OUT =       3.3589E-02             TOTAL OUT =           0.1645

               IN - OUT =       8.3074E-07              IN - OUT =       2.3514E-05

    PERCENT DISCREPANCY =           0.00     PERCENT DISCREPANCY =           0.01



                      VOLUMETRIC SWI ZONE BUDGET FOR ENTIRE MODEL
                     AT END OF TIME STEP  168 IN STRESS PERIOD   1
                                      ZONE     2
  -----------------------------------------------------------------------------------

        CUMULATIVE VOLUMES      L**3       RATES FOR THIS TIME STEP      L**3/T
        ------------------                 ------------------------

              IN:                                      IN:
              ---                                      ---
             BOUNDARIES =       1.3243E-13            BOUNDARIES =       6.5921E-13
          CONSTANT HEAD =       1.6380E-03         CONSTANT HEAD =       4.3962E-03
            ZONE CHANGE =       6.9047E-05           ZONE CHANGE =       3.6067E-04
       ZONE CHG TIP/TOE =       3.6444E-07      ZONE CHG TIP/TOE =       1.4472E-06
            ZONE MIXING =           0.0000           ZONE MIXING =           0.0000

               TOTAL IN =       1.7074E-03              TOTAL IN =       4.7584E-03

             OUT:                                     OUT:
             ----                                     ----
             BOUNDARIES =       1.3167E-13            BOUNDARIES =       6.0756E-13
          CONSTANT HEAD =           0.0000         CONSTANT HEAD =           0.0000
            ZONE CHANGE =       1.6913E-03           ZONE CHANGE =       4.7737E-03
       ZONE CHG TIP/TOE =       1.6875E-05      ZONE CHG TIP/TOE =       7.7462E-06
            ZONE MIXING =           0.0000           ZONE MIXING =           0.0000

              TOTAL OUT =       1.7082E-03             TOTAL OUT =       4.7814E-03

               IN - OUT =      -7.5833E-07              IN - OUT =      -2.3070E-05

    PERCENT DISCREPANCY =          -0.04     PERCENT DISCREPANCY =          -0.48


 HEAD WILL BE SAVED ON UNIT   51 AT END OF TIME STEP  168, STRESS PERIOD    1
1
  VOLUMETRIC BUDGET FOR ENTIRE MODEL AT END OF TIME STEP  168, STRESS PERIOD   1
  ------------------------------------------------------------------------------

     CUMULATIVE VOLUMES      L**3       RATES FOR THIS TIME STEP      L**3/T
     ------------------                 ------------------------

           IN:                                      IN:
           ---                                      ---
             STORAGE =       6.9640E-05               STORAGE =       1.4283E-05
       CONSTANT HEAD =       3.3446E-02         CONSTANT HEAD =           0.1641
               WELLS =           0.0000                 WELLS =           0.0000
          SWIADDTOCH =           0.0000            SWIADDTOCH =           0.0000

            TOTAL IN =       3.3516E-02              TOTAL IN =           0.1642

          OUT:                                     OUT:
          ----                                     ----
             STORAGE =       8.2306E-10               STORAGE =       3.9005E-09
       CONSTANT HEAD =           0.0000         CONSTANT HEAD =           0.0000
               WELLS =       3.3516E-02                 WELLS =           0.1642
          SWIADDTOCH =       1.2457E-09            SWIADDTOCH =           0.0000

           TOTAL OUT =       3.3516E-02             TOTAL OUT =           0.1642

            IN - OUT =      -2.2352E-08              IN - OUT =       1.1921E-07

 PERCENT DISCREPANCY =          -0.00     PERCENT DISCREPANCY =           0.00






         TIME SUMMARY AT END OF TIME STEP  168 IN STRESS PERIOD    1
                    SECONDS     MINUTES      HOURS       DAYS        YEARS
                    -----------------------------------------------------------
   TIME STEP LENGTH  105.00      1.7500     2.91667E-02 1.21528E-03 3.32726E-06
 STRESS PERIOD TIME  17640.      294.00      4.9000     0.20417     5.58979E-04
         TOTAL TIME  17640.      294.00      4.9000     0.20417     5.58979E-04
1

 SOLVING FOR HEAD 
     2 EXTERNAL ITERATIONS FOR TIME STEP 169 IN STRESS PERIOD    1

 MAXIMUM HEAD CHANGE FOR EACH ITERATION:

     HEAD CHANGE  LAY,ROW,COL      HEAD CHANGE  LAY,ROW,COL  
 ------------------------------------------------------------
    -1.980E-05 (  6,    1, 1000)  -1.885E-07 (  6,    1, 1000)



 OUTPUT CONTROL FOR STRESS PERIOD    1   TIME STEP  169
    PRINT BUDGET
    SAVE HEAD FOR ALL LAYERS
 SOLVING FOR ZETA FOR LAYER     6 ZONE     2

     494 UPPER PART EQS.       495 LOWER PART EQS.    BAND WIDTH + 1 =    3
 STRESS PERIOD=  1 TIMESTEP=169 LAYER=  6 ZONE=  2 ACTIVE CELLS=  989 NUMBER OF EQUATIONS=     989
 UBUDSV SAVING "      ZETASRF  1" ON UNIT 55 AT TIME STEP169, STRESS PERIOD    1


                      VOLUMETRIC SWI ZONE BUDGET FOR ENTIRE MODEL
                     AT END OF TIME STEP  169 IN STRESS PERIOD   1
                                      ZONE     1
  -----------------------------------------------------------------------------------

        CUMULATIVE VOLUMES      L**3       RATES FOR THIS TIME STEP      L**3/T
        ------------------                 ------------------------

              IN:                                      IN:
              ---                                      ---
             BOUNDARIES =       3.4141E-08            BOUNDARIES =       1.7066E-07
          CONSTANT HEAD =       3.2003E-02         CONSTANT HEAD =           0.1598
            ZONE CHANGE =       1.7667E-03           ZONE CHANGE =       4.6598E-03
       ZONE CHG TIP/TOE =       2.0249E-05      ZONE CHG TIP/TOE =       3.5166E-05
            ZONE MIXING =           0.0000           ZONE MIXING =           0.0000

               TOTAL IN =       3.3790E-02              TOTAL IN =           0.1645

             OUT:                                     OUT:
             ----                                     ----
             BOUNDARIES =       3.3716E-02            BOUNDARIES =           0.1642
          CONSTANT HEAD =           0.0000         CONSTANT HEAD =           0.0000
            ZONE CHANGE =       7.2733E-05           ZONE CHANGE =       2.9264E-04
       ZONE CHG TIP/TOE =       3.6580E-07      ZONE CHG TIP/TOE =       1.1204E-06
            ZONE MIXING =           0.0000           ZONE MIXING =           0.0000

              TOTAL OUT =       3.3789E-02             TOTAL OUT =           0.1645

               IN - OUT =       8.6054E-07              IN - OUT =       1.9431E-05

    PERCENT DISCREPANCY =           0.00     PERCENT DISCREPANCY =           0.01



                      VOLUMETRIC SWI ZONE BUDGET FOR ENTIRE MODEL
                     AT END OF TIME STEP  169 IN STRESS PERIOD   1
                                      ZONE     2
  -----------------------------------------------------------------------------------

        CUMULATIVE VOLUMES      L**3       RATES FOR THIS TIME STEP      L**3/T
        ------------------                 ------------------------

              IN:                                      IN:
              ---                                      ---
             BOUNDARIES =       1.3318E-13            BOUNDARIES =       6.1157E-13
          CONSTANT HEAD =       1.6433E-03         CONSTANT HEAD =       4.3676E-03
            ZONE CHANGE =       6.9373E-05           ZONE CHANGE =       2.6861E-04
       ZONE CHG TIP/TOE =       3.6580E-07      ZONE CHG TIP/TOE =       1.1204E-06
            ZONE MIXING =           0.0000           ZONE MIXING =           0.0000

               TOTAL IN =       1.7131E-03              TOTAL IN =       4.6374E-03

             OUT:                                     OUT:
             ----                                     ----
             BOUNDARIES =       1.3249E-13            BOUNDARIES =       6.7832E-13
          CONSTANT HEAD =           0.0000         CONSTANT HEAD =           0.0000
            ZONE CHANGE =       1.6969E-03           ZONE CHANGE =       4.6452E-03
       ZONE CHG TIP/TOE =       1.6888E-05      ZONE CHG TIP/TOE =       1.1132E-05
            ZONE MIXING =           0.0000           ZONE MIXING =           0.0000

              TOTAL OUT =       1.7138E-03             TOTAL OUT =       4.6564E-03

               IN - OUT =      -7.8138E-07              IN - OUT =      -1.8995E-05

    PERCENT DISCREPANCY =          -0.05     PERCENT DISCREPANCY =          -0.41


 HEAD WILL BE SAVED ON UNIT   51 AT END OF TIME STEP  169, STRESS PERIOD    1
1
  VOLUMETRIC BUDGET FOR ENTIRE MODEL AT END OF TIME STEP  169, STRESS PERIOD   1
  ------------------------------------------------------------------------------

     CUMULATIVE VOLUMES      L**3       RATES FOR THIS TIME STEP      L**3/T
     ------------------                 ------------------------

           IN:                                      IN:
           ---                                      ---
             STORAGE =       6.9657E-05               STORAGE =       1.4245E-05
       CONSTANT HEAD =       3.3646E-02         CONSTANT HEAD =           0.1641
               WELLS =           0.0000                 WELLS =           0.0000
          SWIADDTOCH =           0.0000            SWIADDTOCH =           0.0000

            TOTAL IN =       3.3716E-02              TOTAL IN =           0.1642

          OUT:                                     OUT:
          ----                                     ----
             STORAGE =       8.3006E-10               STORAGE =       5.7624E-09
       CONSTANT HEAD =           0.0000         CONSTANT HEAD =           0.0000
               WELLS =       3.3716E-02                 WELLS =           0.1642
          SWIADDTOCH =       1.2457E-09            SWIADDTOCH =           0.0000

           TOTAL OUT =       3.3716E-02             TOTAL OUT =           0.1642

            IN - OUT =      -2.2352E-08              IN - OUT =       1.3411E-07

 PERCENT DISCREPANCY =          -0.00     PERCENT DISCREPANCY =           0.00






         TIME SUMMARY AT END OF TIME STEP  169 IN STRESS PERIOD    1
                    SECONDS     MINUTES      HOURS       DAYS        YEARS
                    -----------------------------------------------------------
   TIME STEP LENGTH  105.00      1.7500     2.91667E-02 1.21528E-03 3.32726E-06
 STRESS PERIOD TIME  17745.      295.75      4.9292     0.20538     5.62306E-04
         TOTAL TIME  17745.      295.75      4.9292     0.20538     5.62306E-04
1

 SOLVING FOR HEAD 
     2 EXTERNAL ITERATIONS FOR TIME STEP 170 IN STRESS PERIOD    1

 MAXIMUM HEAD CHANGE FOR EACH ITERATION:

     HEAD CHANGE  LAY,ROW,COL      HEAD CHANGE  LAY,ROW,COL  
 ------------------------------------------------------------
    -1.984E-05 (  6,    1, 1000)  -1.877E-07 (  6,    1, 1000)



 OUTPUT CONTROL FOR STRESS PERIOD    1   TIME STEP  170
    PRINT BUDGET
    SAVE HEAD FOR ALL LAYERS
 SOLVING FOR ZETA FOR LAYER     6 ZONE     2

     495 UPPER PART EQS.       496 LOWER PART EQS.    BAND WIDTH + 1 =    3
 STRESS PERIOD=  1 TIMESTEP=170 LAYER=  6 ZONE=  2 ACTIVE CELLS=  991 NUMBER OF EQUATIONS=     991
 UBUDSV SAVING "      ZETASRF  1" ON UNIT 55 AT TIME STEP170, STRESS PERIOD    1


                      VOLUMETRIC SWI ZONE BUDGET FOR ENTIRE MODEL
                     AT END OF TIME STEP  170 IN STRESS PERIOD   1
                                      ZONE     1
  -----------------------------------------------------------------------------------

        CUMULATIVE VOLUMES      L**3       RATES FOR THIS TIME STEP      L**3/T
        ------------------                 ------------------------

              IN:                                      IN:
              ---                                      ---
             BOUNDARIES =       3.4329E-08            BOUNDARIES =       1.5443E-07
          CONSTANT HEAD =       3.2197E-02         CONSTANT HEAD =           0.1598
            ZONE CHANGE =       1.7722E-03           ZONE CHANGE =       4.5808E-03
       ZONE CHG TIP/TOE =       2.0295E-05      ZONE CHG TIP/TOE =       3.8184E-05
            ZONE MIXING =           0.0000           ZONE MIXING =           0.0000

               TOTAL IN =       3.3989E-02              TOTAL IN =           0.1644

             OUT:                                     OUT:
             ----                                     ----
             BOUNDARIES =       3.3915E-02            BOUNDARIES =           0.1642
          CONSTANT HEAD =           0.0000         CONSTANT HEAD =           0.0000
            ZONE CHANGE =       7.3031E-05           ZONE CHANGE =       2.4464E-04
       ZONE CHG TIP/TOE =       3.6602E-07      ZONE CHG TIP/TOE =       1.7733E-07
            ZONE MIXING =           0.0000           ZONE MIXING =           0.0000

              TOTAL OUT =       3.3988E-02             TOTAL OUT =           0.1644

               IN - OUT =       8.8662E-07              IN - OUT =       2.0579E-05

    PERCENT DISCREPANCY =           0.00     PERCENT DISCREPANCY =           0.01



                      VOLUMETRIC SWI ZONE BUDGET FOR ENTIRE MODEL
                     AT END OF TIME STEP  170 IN STRESS PERIOD   1
                                      ZONE     2
  -----------------------------------------------------------------------------------

        CUMULATIVE VOLUMES      L**3       RATES FOR THIS TIME STEP      L**3/T
        ------------------                 ------------------------

              IN:                                      IN:
              ---                                      ---
             BOUNDARIES =       1.3391E-13            BOUNDARIES =       6.0246E-13
          CONSTANT HEAD =       1.6486E-03         CONSTANT HEAD =       4.3395E-03
            ZONE CHANGE =       6.9640E-05           ZONE CHANGE =       2.1986E-04
       ZONE CHG TIP/TOE =       3.6602E-07      ZONE CHG TIP/TOE =       1.7733E-07
            ZONE MIXING =           0.0000           ZONE MIXING =           0.0000

               TOTAL IN =       1.7186E-03              TOTAL IN =       4.5595E-03

             OUT:                                     OUT:
             ----                                     ----
             BOUNDARIES =       1.3336E-13            BOUNDARIES =       7.1592E-13
          CONSTANT HEAD =           0.0000         CONSTANT HEAD =           0.0000
            ZONE CHANGE =       1.7025E-03           ZONE CHANGE =       4.5663E-03
       ZONE CHG TIP/TOE =       1.6905E-05      ZONE CHG TIP/TOE =       1.3403E-05
            ZONE MIXING =           0.0000           ZONE MIXING =           0.0000

              TOTAL OUT =       1.7194E-03             TOTAL OUT =       4.5797E-03

               IN - OUT =      -8.0583E-07              IN - OUT =      -2.0156E-05

    PERCENT DISCREPANCY =          -0.05     PERCENT DISCREPANCY =          -0.44


 HEAD WILL BE SAVED ON UNIT   51 AT END OF TIME STEP  170, STRESS PERIOD    1
1
  VOLUMETRIC BUDGET FOR ENTIRE MODEL AT END OF TIME STEP  170, STRESS PERIOD   1
  ------------------------------------------------------------------------------

     CUMULATIVE VOLUMES      L**3       RATES FOR THIS TIME STEP      L**3/T
     ------------------                 ------------------------

           IN:                                      IN:
           ---                                      ---
             STORAGE =       6.9675E-05               STORAGE =       1.4236E-05
       CONSTANT HEAD =       3.3845E-02         CONSTANT HEAD =           0.1641
               WELLS =           0.0000                 WELLS =           0.0000
          SWIADDTOCH =           0.0000            SWIADDTOCH =           0.0000

            TOTAL IN =       3.3915E-02              TOTAL IN =           0.1642

          OUT:                                     OUT:
          ----                                     ----
             STORAGE =       8.3593E-10               STORAGE =       4.8291E-09
       CONSTANT HEAD =           0.0000         CONSTANT HEAD =           0.0000
               WELLS =       3.3915E-02                 WELLS =           0.1642
          SWIADDTOCH =       1.3318E-09            SWIADDTOCH =       7.0865E-08

           TOTAL OUT =       3.3915E-02             TOTAL OUT =           0.1642

            IN - OUT =      -2.6077E-08              IN - OUT =       1.6391E-07

 PERCENT DISCREPANCY =          -0.00     PERCENT DISCREPANCY =           0.00






         TIME SUMMARY AT END OF TIME STEP  170 IN STRESS PERIOD    1
                    SECONDS     MINUTES      HOURS       DAYS        YEARS
                    -----------------------------------------------------------
   TIME STEP LENGTH  105.00      1.7500     2.91667E-02 1.21528E-03 3.32726E-06
 STRESS PERIOD TIME  17850.      297.50      4.9583     0.20660     5.65633E-04
         TOTAL TIME  17850.      297.50      4.9583     0.20660     5.65633E-04
1

 SOLVING FOR HEAD 
     2 EXTERNAL ITERATIONS FOR TIME STEP 171 IN STRESS PERIOD    1

 MAXIMUM HEAD CHANGE FOR EACH ITERATION:

     HEAD CHANGE  LAY,ROW,COL      HEAD CHANGE  LAY,ROW,COL  
 ------------------------------------------------------------
    -1.988E-05 (  6,    1, 1000)  -1.875E-07 (  6,    1,  999)



 OUTPUT CONTROL FOR STRESS PERIOD    1   TIME STEP  171
    PRINT BUDGET
    SAVE HEAD FOR ALL LAYERS
 SOLVING FOR ZETA FOR LAYER     6 ZONE     2

     494 UPPER PART EQS.       495 LOWER PART EQS.    BAND WIDTH + 1 =    3
 STRESS PERIOD=  1 TIMESTEP=171 LAYER=  6 ZONE=  2 ACTIVE CELLS=  989 NUMBER OF EQUATIONS=     989
 UBUDSV SAVING "      ZETASRF  1" ON UNIT 55 AT TIME STEP171, STRESS PERIOD    1


                      VOLUMETRIC SWI ZONE BUDGET FOR ENTIRE MODEL
                     AT END OF TIME STEP  171 IN STRESS PERIOD   1
                                      ZONE     1
  -----------------------------------------------------------------------------------

        CUMULATIVE VOLUMES      L**3       RATES FOR THIS TIME STEP      L**3/T
        ------------------                 ------------------------

              IN:                                      IN:
              ---                                      ---
             BOUNDARIES =       3.4528E-08            BOUNDARIES =       1.6425E-07
          CONSTANT HEAD =       3.2391E-02         CONSTANT HEAD =           0.1598
            ZONE CHANGE =       1.7777E-03           ZONE CHANGE =       4.5285E-03
       ZONE CHG TIP/TOE =       2.0345E-05      ZONE CHG TIP/TOE =       4.0752E-05
            ZONE MIXING =           0.0000           ZONE MIXING =           0.0000

               TOTAL IN =       3.4189E-02              TOTAL IN =           0.1644

             OUT:                                     OUT:
             ----                                     ----
             BOUNDARIES =       3.4115E-02            BOUNDARIES =           0.1642
          CONSTANT HEAD =           0.0000         CONSTANT HEAD =           0.0000
            ZONE CHANGE =       7.3302E-05           ZONE CHANGE =       2.2344E-04
       ZONE CHG TIP/TOE =       3.6744E-07      ZONE CHG TIP/TOE =       1.1693E-06
            ZONE MIXING =           0.0000           ZONE MIXING =           0.0000

              TOTAL OUT =       3.4188E-02             TOTAL OUT =           0.1644

               IN - OUT =       9.0525E-07              IN - OUT =       1.9282E-05

    PERCENT DISCREPANCY =           0.00     PERCENT DISCREPANCY =           0.01



                      VOLUMETRIC SWI ZONE BUDGET FOR ENTIRE MODEL
                     AT END OF TIME STEP  171 IN STRESS PERIOD   1
                                      ZONE     2
  -----------------------------------------------------------------------------------

        CUMULATIVE VOLUMES      L**3       RATES FOR THIS TIME STEP      L**3/T
        ------------------                 ------------------------

              IN:                                      IN:
              ---                                      ---
             BOUNDARIES =       1.3473E-13            BOUNDARIES =       6.7782E-13
          CONSTANT HEAD =       1.6538E-03         CONSTANT HEAD =       4.3114E-03
            ZONE CHANGE =       6.9881E-05           ZONE CHANGE =       1.9782E-04
       ZONE CHG TIP/TOE =       3.6744E-07      ZONE CHG TIP/TOE =       1.1693E-06
            ZONE MIXING =           0.0000           ZONE MIXING =           0.0000

               TOTAL IN =       1.7241E-03              TOTAL IN =       4.5104E-03

             OUT:                                     OUT:
             ----                                     ----
             BOUNDARIES =       1.3414E-13            BOUNDARIES =       6.3982E-13
          CONSTANT HEAD =           0.0000         CONSTANT HEAD =           0.0000
            ZONE CHANGE =       1.7080E-03           ZONE CHANGE =       4.5141E-03
       ZONE CHG TIP/TOE =       1.6923E-05      ZONE CHG TIP/TOE =       1.5125E-05
            ZONE MIXING =           0.0000           ZONE MIXING =           0.0000

              TOTAL OUT =       1.7249E-03             TOTAL OUT =       4.5292E-03

               IN - OUT =      -8.2876E-07              IN - OUT =      -1.8816E-05

    PERCENT DISCREPANCY =          -0.05     PERCENT DISCREPANCY =          -0.42


 HEAD WILL BE SAVED ON UNIT   51 AT END OF TIME STEP  171, STRESS PERIOD    1
1
  VOLUMETRIC BUDGET FOR ENTIRE MODEL AT END OF TIME STEP  171, STRESS PERIOD   1
  ------------------------------------------------------------------------------

     CUMULATIVE VOLUMES      L**3       RATES FOR THIS TIME STEP      L**3/T
     ------------------                 ------------------------

           IN:                                      IN:
           ---                                      ---
             STORAGE =       6.9692E-05               STORAGE =       1.4156E-05
       CONSTANT HEAD =       3.4045E-02         CONSTANT HEAD =           0.1641
               WELLS =           0.0000                 WELLS =           0.0000
          SWIADDTOCH =           0.0000            SWIADDTOCH =           0.0000

            TOTAL IN =       3.4115E-02              TOTAL IN =           0.1642

          OUT:                                     OUT:
          ----                                     ----
             STORAGE =       8.4179E-10               STORAGE =       4.8274E-09
       CONSTANT HEAD =           0.0000         CONSTANT HEAD =           0.0000
               WELLS =       3.4115E-02                 WELLS =           0.1642
          SWIADDTOCH =       1.3318E-09            SWIADDTOCH =           0.0000

           TOTAL OUT =       3.4115E-02             TOTAL OUT =           0.1642

            IN - OUT =      -2.6077E-08              IN - OUT =       1.6391E-07

 PERCENT DISCREPANCY =          -0.00     PERCENT DISCREPANCY =           0.00






         TIME SUMMARY AT END OF TIME STEP  171 IN STRESS PERIOD    1
                    SECONDS     MINUTES      HOURS       DAYS        YEARS
                    -----------------------------------------------------------
   TIME STEP LENGTH  105.00      1.7500     2.91667E-02 1.21528E-03 3.32726E-06
 STRESS PERIOD TIME  17955.      299.25      4.9875     0.20781     5.68960E-04
         TOTAL TIME  17955.      299.25      4.9875     0.20781     5.68960E-04
1

 SOLVING FOR HEAD 
     2 EXTERNAL ITERATIONS FOR TIME STEP 172 IN STRESS PERIOD    1

 MAXIMUM HEAD CHANGE FOR EACH ITERATION:

     HEAD CHANGE  LAY,ROW,COL      HEAD CHANGE  LAY,ROW,COL  
 ------------------------------------------------------------
    -1.991E-05 (  6,    1, 1000)  -1.869E-07 (  6,    1,  999)



 OUTPUT CONTROL FOR STRESS PERIOD    1   TIME STEP  172
    PRINT BUDGET
    SAVE HEAD FOR ALL LAYERS
 SOLVING FOR ZETA FOR LAYER     6 ZONE     2

     495 UPPER PART EQS.       494 LOWER PART EQS.    BAND WIDTH + 1 =    4
 STRESS PERIOD=  1 TIMESTEP=172 LAYER=  6 ZONE=  2 ACTIVE CELLS=  989 NUMBER OF EQUATIONS=     989
 UBUDSV SAVING "      ZETASRF  1" ON UNIT 55 AT TIME STEP172, STRESS PERIOD    1


                      VOLUMETRIC SWI ZONE BUDGET FOR ENTIRE MODEL
                     AT END OF TIME STEP  172 IN STRESS PERIOD   1
                                      ZONE     1
  -----------------------------------------------------------------------------------

        CUMULATIVE VOLUMES      L**3       RATES FOR THIS TIME STEP      L**3/T
        ------------------                 ------------------------

              IN:                                      IN:
              ---                                      ---
             BOUNDARIES =       3.4730E-08            BOUNDARIES =       1.6603E-07
          CONSTANT HEAD =       3.2585E-02         CONSTANT HEAD =           0.1599
            ZONE CHANGE =       1.7832E-03           ZONE CHANGE =       4.4868E-03
       ZONE CHG TIP/TOE =       2.0389E-05      ZONE CHG TIP/TOE =       3.6532E-05
            ZONE MIXING =           0.0000           ZONE MIXING =           0.0000

               TOTAL IN =       3.4389E-02              TOTAL IN =           0.1644

             OUT:                                     OUT:
             ----                                     ----
             BOUNDARIES =       3.4314E-02            BOUNDARIES =           0.1642
          CONSTANT HEAD =           0.0000         CONSTANT HEAD =           0.0000
            ZONE CHANGE =       7.3559E-05           ZONE CHANGE =       2.1085E-04
       ZONE CHG TIP/TOE =       3.6996E-07      ZONE CHG TIP/TOE =       2.0803E-06
            ZONE MIXING =           0.0000           ZONE MIXING =           0.0000

              TOTAL OUT =       3.4388E-02             TOTAL OUT =           0.1644

               IN - OUT =       9.2387E-07              IN - OUT =       1.3053E-05

    PERCENT DISCREPANCY =           0.00     PERCENT DISCREPANCY =           0.01



                      VOLUMETRIC SWI ZONE BUDGET FOR ENTIRE MODEL
                     AT END OF TIME STEP  172 IN STRESS PERIOD   1
                                      ZONE     2
  -----------------------------------------------------------------------------------

        CUMULATIVE VOLUMES      L**3       RATES FOR THIS TIME STEP      L**3/T
        ------------------                 ------------------------

              IN:                                      IN:
              ---                                      ---
             BOUNDARIES =       1.3555E-13            BOUNDARIES =       6.6776E-13
          CONSTANT HEAD =       1.6590E-03         CONSTANT HEAD =       4.2834E-03
            ZONE CHANGE =       7.0111E-05           ZONE CHANGE =       1.8948E-04
       ZONE CHG TIP/TOE =       3.6996E-07      ZONE CHG TIP/TOE =       2.0803E-06
            ZONE MIXING =           0.0000           ZONE MIXING =           0.0000

               TOTAL IN =       1.7295E-03              TOTAL IN =       4.4749E-03

             OUT:                                     OUT:
             ----                                     ----
             BOUNDARIES =       1.3494E-13            BOUNDARIES =       6.5219E-13
          CONSTANT HEAD =           0.0000         CONSTANT HEAD =           0.0000
            ZONE CHANGE =       1.7134E-03           ZONE CHANGE =       4.4724E-03
       ZONE CHG TIP/TOE =       1.6942E-05      ZONE CHG TIP/TOE =       1.5158E-05
            ZONE MIXING =           0.0000           ZONE MIXING =           0.0000

              TOTAL OUT =       1.7304E-03             TOTAL OUT =       4.4876E-03

               IN - OUT =      -8.4401E-07              IN - OUT =      -1.2612E-05

    PERCENT DISCREPANCY =          -0.05     PERCENT DISCREPANCY =          -0.28


 HEAD WILL BE SAVED ON UNIT   51 AT END OF TIME STEP  172, STRESS PERIOD    1
1
  VOLUMETRIC BUDGET FOR ENTIRE MODEL AT END OF TIME STEP  172, STRESS PERIOD   1
  ------------------------------------------------------------------------------

     CUMULATIVE VOLUMES      L**3       RATES FOR THIS TIME STEP      L**3/T
     ------------------                 ------------------------

           IN:                                      IN:
           ---                                      ---
             STORAGE =       6.9709E-05               STORAGE =       1.4086E-05
       CONSTANT HEAD =       3.4244E-02         CONSTANT HEAD =           0.1641
               WELLS =           0.0000                 WELLS =           0.0000
          SWIADDTOCH =           0.0000            SWIADDTOCH =           0.0000

            TOTAL IN =       3.4314E-02              TOTAL IN =           0.1642

          OUT:                                     OUT:
          ----                                     ----
             STORAGE =       8.4426E-10               STORAGE =       2.0316E-09
       CONSTANT HEAD =           0.0000         CONSTANT HEAD =           0.0000
               WELLS =       3.4314E-02                 WELLS =           0.1642
          SWIADDTOCH =       1.3318E-09            SWIADDTOCH =           0.0000

           TOTAL OUT =       3.4314E-02             TOTAL OUT =           0.1642

            IN - OUT =      -2.9802E-08              IN - OUT =       1.4901E-07

 PERCENT DISCREPANCY =          -0.00     PERCENT DISCREPANCY =           0.00






         TIME SUMMARY AT END OF TIME STEP  172 IN STRESS PERIOD    1
                    SECONDS     MINUTES      HOURS       DAYS        YEARS
                    -----------------------------------------------------------
   TIME STEP LENGTH  105.00      1.7500     2.91667E-02 1.21528E-03 3.32726E-06
 STRESS PERIOD TIME  18060.      301.00      5.0167     0.20903     5.72288E-04
         TOTAL TIME  18060.      301.00      5.0167     0.20903     5.72288E-04
1

 SOLVING FOR HEAD 
     2 EXTERNAL ITERATIONS FOR TIME STEP 173 IN STRESS PERIOD    1

 MAXIMUM HEAD CHANGE FOR EACH ITERATION:

     HEAD CHANGE  LAY,ROW,COL      HEAD CHANGE  LAY,ROW,COL  
 ------------------------------------------------------------
    -1.995E-05 (  6,    1, 1000)  -1.863E-07 (  6,    1,  999)



 OUTPUT CONTROL FOR STRESS PERIOD    1   TIME STEP  173
    PRINT BUDGET
    SAVE HEAD FOR ALL LAYERS
 SOLVING FOR ZETA FOR LAYER     6 ZONE     2

     494 UPPER PART EQS.       494 LOWER PART EQS.    BAND WIDTH + 1 =    3
 STRESS PERIOD=  1 TIMESTEP=173 LAYER=  6 ZONE=  2 ACTIVE CELLS=  988 NUMBER OF EQUATIONS=     988
 UBUDSV SAVING "      ZETASRF  1" ON UNIT 55 AT TIME STEP173, STRESS PERIOD    1


                      VOLUMETRIC SWI ZONE BUDGET FOR ENTIRE MODEL
                     AT END OF TIME STEP  173 IN STRESS PERIOD   1
                                      ZONE     1
  -----------------------------------------------------------------------------------

        CUMULATIVE VOLUMES      L**3       RATES FOR THIS TIME STEP      L**3/T
        ------------------                 ------------------------

              IN:                                      IN:
              ---                                      ---
             BOUNDARIES =       3.4914E-08            BOUNDARIES =       1.5161E-07
          CONSTANT HEAD =       3.2780E-02         CONSTANT HEAD =           0.1599
            ZONE CHANGE =       1.7886E-03           ZONE CHANGE =       4.4528E-03
       ZONE CHG TIP/TOE =       2.0430E-05      ZONE CHG TIP/TOE =       3.4068E-05
            ZONE MIXING =           0.0000           ZONE MIXING =           0.0000

               TOTAL IN =       3.4589E-02              TOTAL IN =           0.1644

             OUT:                                     OUT:
             ----                                     ----
             BOUNDARIES =       3.4514E-02            BOUNDARIES =           0.1642
          CONSTANT HEAD =           0.0000         CONSTANT HEAD =           0.0000
            ZONE CHANGE =       7.3811E-05           ZONE CHANGE =       2.0793E-04
       ZONE CHG TIP/TOE =       3.7277E-07      ZONE CHG TIP/TOE =       2.3073E-06
            ZONE MIXING =           0.0000           ZONE MIXING =           0.0000

              TOTAL OUT =       3.4588E-02             TOTAL OUT =           0.1644

               IN - OUT =       9.3132E-07              IN - OUT =       7.1079E-06

    PERCENT DISCREPANCY =           0.00     PERCENT DISCREPANCY =           0.00



                      VOLUMETRIC SWI ZONE BUDGET FOR ENTIRE MODEL
                     AT END OF TIME STEP  173 IN STRESS PERIOD   1
                                      ZONE     2
  -----------------------------------------------------------------------------------

        CUMULATIVE VOLUMES      L**3       RATES FOR THIS TIME STEP      L**3/T
        ------------------                 ------------------------

              IN:                                      IN:
              ---                                      ---
             BOUNDARIES =       1.3637E-13            BOUNDARIES =       6.7798E-13
          CONSTANT HEAD =       1.6642E-03         CONSTANT HEAD =       4.2556E-03
            ZONE CHANGE =       7.0344E-05           ZONE CHANGE =       1.9150E-04
       ZONE CHG TIP/TOE =       3.7277E-07      ZONE CHG TIP/TOE =       2.3073E-06
            ZONE MIXING =           0.0000           ZONE MIXING =           0.0000

               TOTAL IN =       1.7349E-03              TOTAL IN =       4.4494E-03

             OUT:                                     OUT:
             ----                                     ----
             BOUNDARIES =       1.3569E-13            BOUNDARIES =       6.2487E-13
          CONSTANT HEAD =           0.0000         CONSTANT HEAD =           0.0000
            ZONE CHANGE =       1.7188E-03           ZONE CHANGE =       4.4385E-03
       ZONE CHG TIP/TOE =       1.6963E-05      ZONE CHG TIP/TOE =       1.7642E-05
            ZONE MIXING =           0.0000           ZONE MIXING =           0.0000

              TOTAL OUT =       1.7358E-03             TOTAL OUT =       4.4561E-03

               IN - OUT =      -8.5216E-07              IN - OUT =      -6.6673E-06

    PERCENT DISCREPANCY =          -0.05     PERCENT DISCREPANCY =          -0.15


 HEAD WILL BE SAVED ON UNIT   51 AT END OF TIME STEP  173, STRESS PERIOD    1
1
  VOLUMETRIC BUDGET FOR ENTIRE MODEL AT END OF TIME STEP  173, STRESS PERIOD   1
  ------------------------------------------------------------------------------

     CUMULATIVE VOLUMES      L**3       RATES FOR THIS TIME STEP      L**3/T
     ------------------                 ------------------------

           IN:                                      IN:
           ---                                      ---
             STORAGE =       6.9726E-05               STORAGE =       1.4052E-05
       CONSTANT HEAD =       3.4444E-02         CONSTANT HEAD =           0.1641
               WELLS =           0.0000                 WELLS =           0.0000
          SWIADDTOCH =           0.0000            SWIADDTOCH =           0.0000

            TOTAL IN =       3.4514E-02              TOTAL IN =           0.1642

          OUT:                                     OUT:
          ----                                     ----
             STORAGE =       8.5013E-10               STORAGE =       4.8239E-09
       CONSTANT HEAD =           0.0000         CONSTANT HEAD =           0.0000
               WELLS =       3.4514E-02                 WELLS =           0.1642
          SWIADDTOCH =       1.3318E-09            SWIADDTOCH =           0.0000

           TOTAL OUT =       3.4514E-02             TOTAL OUT =           0.1642

            IN - OUT =      -2.9802E-08              IN - OUT =       1.6391E-07

 PERCENT DISCREPANCY =          -0.00     PERCENT DISCREPANCY =           0.00






         TIME SUMMARY AT END OF TIME STEP  173 IN STRESS PERIOD    1
                    SECONDS     MINUTES      HOURS       DAYS        YEARS
                    -----------------------------------------------------------
   TIME STEP LENGTH  105.00      1.7500     2.91667E-02 1.21528E-03 3.32726E-06
 STRESS PERIOD TIME  18165.      302.75      5.0458     0.21024     5.75615E-04
         TOTAL TIME  18165.      302.75      5.0458     0.21024     5.75615E-04
1

 SOLVING FOR HEAD 
     2 EXTERNAL ITERATIONS FOR TIME STEP 174 IN STRESS PERIOD    1

 MAXIMUM HEAD CHANGE FOR EACH ITERATION:

     HEAD CHANGE  LAY,ROW,COL      HEAD CHANGE  LAY,ROW,COL  
 ------------------------------------------------------------
    -2.000E-05 (  6,    1, 1000)  -1.858E-07 (  6,    1,  999)



 OUTPUT CONTROL FOR STRESS PERIOD    1   TIME STEP  174
    PRINT BUDGET
    SAVE HEAD FOR ALL LAYERS
 SOLVING FOR ZETA FOR LAYER     6 ZONE     2

     493 UPPER PART EQS.       497 LOWER PART EQS.    BAND WIDTH + 1 =    4
 STRESS PERIOD=  1 TIMESTEP=174 LAYER=  6 ZONE=  2 ACTIVE CELLS=  990 NUMBER OF EQUATIONS=     990
 UBUDSV SAVING "      ZETASRF  1" ON UNIT 55 AT TIME STEP174, STRESS PERIOD    1


                      VOLUMETRIC SWI ZONE BUDGET FOR ENTIRE MODEL
                     AT END OF TIME STEP  174 IN STRESS PERIOD   1
                                      ZONE     1
  -----------------------------------------------------------------------------------

        CUMULATIVE VOLUMES      L**3       RATES FOR THIS TIME STEP      L**3/T
        ------------------                 ------------------------

              IN:                                      IN:
              ---                                      ---
             BOUNDARIES =       3.5110E-08            BOUNDARIES =       1.6053E-07
          CONSTANT HEAD =       3.2974E-02         CONSTANT HEAD =           0.1599
            ZONE CHANGE =       1.7940E-03           ZONE CHANGE =       4.4225E-03
       ZONE CHG TIP/TOE =       2.0464E-05      ZONE CHG TIP/TOE =       2.7817E-05
            ZONE MIXING =           0.0000           ZONE MIXING =           0.0000

               TOTAL IN =       3.4788E-02              TOTAL IN =           0.1644

             OUT:                                     OUT:
             ----                                     ----
             BOUNDARIES =       3.4713E-02            BOUNDARIES =           0.1642
          CONSTANT HEAD =           0.0000         CONSTANT HEAD =           0.0000
            ZONE CHANGE =       7.4055E-05           ZONE CHANGE =       2.0042E-04
       ZONE CHG TIP/TOE =       3.7392E-07      ZONE CHG TIP/TOE =       9.4838E-07
            ZONE MIXING =           0.0000           ZONE MIXING =           0.0000

              TOTAL OUT =       3.4788E-02             TOTAL OUT =           0.1644

               IN - OUT =       9.3877E-07              IN - OUT =       6.9290E-06

    PERCENT DISCREPANCY =           0.00     PERCENT DISCREPANCY =           0.00



                      VOLUMETRIC SWI ZONE BUDGET FOR ENTIRE MODEL
                     AT END OF TIME STEP  174 IN STRESS PERIOD   1
                                      ZONE     2
  -----------------------------------------------------------------------------------

        CUMULATIVE VOLUMES      L**3       RATES FOR THIS TIME STEP      L**3/T
        ------------------                 ------------------------

              IN:                                      IN:
              ---                                      ---
             BOUNDARIES =       1.3719E-13            BOUNDARIES =       6.7931E-13
          CONSTANT HEAD =       1.6693E-03         CONSTANT HEAD =       4.2282E-03
            ZONE CHANGE =       7.0567E-05           ZONE CHANGE =       1.8386E-04
       ZONE CHG TIP/TOE =       3.7392E-07      ZONE CHG TIP/TOE =       9.4838E-07
            ZONE MIXING =           0.0000           ZONE MIXING =           0.0000

               TOTAL IN =       1.7403E-03              TOTAL IN =       4.4130E-03

             OUT:                                     OUT:
             ----                                     ----
             BOUNDARIES =       1.3648E-13            BOUNDARIES =       6.5030E-13
          CONSTANT HEAD =           0.0000         CONSTANT HEAD =           0.0000
            ZONE CHANGE =       1.7242E-03           ZONE CHANGE =       4.4082E-03
       ZONE CHG TIP/TOE =       1.6977E-05      ZONE CHG TIP/TOE =       1.1258E-05
            ZONE MIXING =           0.0000           ZONE MIXING =           0.0000

              TOTAL OUT =       1.7411E-03             TOTAL OUT =       4.4195E-03

               IN - OUT =      -8.5996E-07              IN - OUT =      -6.4811E-06

    PERCENT DISCREPANCY =          -0.05     PERCENT DISCREPANCY =          -0.15


 HEAD WILL BE SAVED ON UNIT   51 AT END OF TIME STEP  174, STRESS PERIOD    1
1
  VOLUMETRIC BUDGET FOR ENTIRE MODEL AT END OF TIME STEP  174, STRESS PERIOD   1
  ------------------------------------------------------------------------------

     CUMULATIVE VOLUMES      L**3       RATES FOR THIS TIME STEP      L**3/T
     ------------------                 ------------------------

           IN:                                      IN:
           ---                                      ---
             STORAGE =       6.9743E-05               STORAGE =       1.3995E-05
       CONSTANT HEAD =       3.4643E-02         CONSTANT HEAD =           0.1641
               WELLS =           0.0000                 WELLS =           0.0000
          SWIADDTOCH =           0.0000            SWIADDTOCH =           0.0000

            TOTAL IN =       3.4713E-02              TOTAL IN =           0.1642

          OUT:                                     OUT:
          ----                                     ----
             STORAGE =       8.5599E-10               STORAGE =       4.8220E-09
       CONSTANT HEAD =           0.0000         CONSTANT HEAD =           0.0000
               WELLS =       3.4713E-02                 WELLS =           0.1642
          SWIADDTOCH =       1.3318E-09            SWIADDTOCH =           0.0000

           TOTAL OUT =       3.4713E-02             TOTAL OUT =           0.1642

            IN - OUT =      -2.9802E-08              IN - OUT =       1.4901E-07

 PERCENT DISCREPANCY =          -0.00     PERCENT DISCREPANCY =           0.00






         TIME SUMMARY AT END OF TIME STEP  174 IN STRESS PERIOD    1
                    SECONDS     MINUTES      HOURS       DAYS        YEARS
                    -----------------------------------------------------------
   TIME STEP LENGTH  105.00      1.7500     2.91667E-02 1.21528E-03 3.32726E-06
 STRESS PERIOD TIME  18270.      304.50      5.0750     0.21146     5.78942E-04
         TOTAL TIME  18270.      304.50      5.0750     0.21146     5.78942E-04
1

 SOLVING FOR HEAD 
     2 EXTERNAL ITERATIONS FOR TIME STEP 175 IN STRESS PERIOD    1

 MAXIMUM HEAD CHANGE FOR EACH ITERATION:

     HEAD CHANGE  LAY,ROW,COL      HEAD CHANGE  LAY,ROW,COL  
 ------------------------------------------------------------
    -2.004E-05 (  6,    1, 1000)  -1.851E-07 (  6,    1,  999)



 OUTPUT CONTROL FOR STRESS PERIOD    1   TIME STEP  175
    PRINT BUDGET
    SAVE HEAD FOR ALL LAYERS
 SOLVING FOR ZETA FOR LAYER     6 ZONE     2

     497 UPPER PART EQS.       495 LOWER PART EQS.    BAND WIDTH + 1 =    4
 STRESS PERIOD=  1 TIMESTEP=175 LAYER=  6 ZONE=  2 ACTIVE CELLS=  992 NUMBER OF EQUATIONS=     992
 UBUDSV SAVING "      ZETASRF  1" ON UNIT 55 AT TIME STEP175, STRESS PERIOD    1


                      VOLUMETRIC SWI ZONE BUDGET FOR ENTIRE MODEL
                     AT END OF TIME STEP  175 IN STRESS PERIOD   1
                                      ZONE     1
  -----------------------------------------------------------------------------------

        CUMULATIVE VOLUMES      L**3       RATES FOR THIS TIME STEP      L**3/T
        ------------------                 ------------------------

              IN:                                      IN:
              ---                                      ---
             BOUNDARIES =       3.5313E-08            BOUNDARIES =       1.6732E-07
          CONSTANT HEAD =       3.3168E-02         CONSTANT HEAD =           0.1599
            ZONE CHANGE =       1.7993E-03           ZONE CHANGE =       4.3721E-03
       ZONE CHG TIP/TOE =       2.0493E-05      ZONE CHG TIP/TOE =       2.3617E-05
            ZONE MIXING =           0.0000           ZONE MIXING =           0.0000

               TOTAL IN =       3.4988E-02              TOTAL IN =           0.1643

             OUT:                                     OUT:
             ----                                     ----
             BOUNDARIES =       3.4913E-02            BOUNDARIES =           0.1642
          CONSTANT HEAD =           0.0000         CONSTANT HEAD =           0.0000
            ZONE CHANGE =       7.4270E-05           ZONE CHANGE =       1.7722E-04
       ZONE CHG TIP/TOE =       3.7562E-07      ZONE CHG TIP/TOE =       1.3999E-06
            ZONE MIXING =           0.0000           ZONE MIXING =           0.0000

              TOTAL OUT =       3.4987E-02             TOTAL OUT =           0.1643

               IN - OUT =       9.4250E-07              IN - OUT =       2.6226E-06

    PERCENT DISCREPANCY =           0.00     PERCENT DISCREPANCY =           0.00



                      VOLUMETRIC SWI ZONE BUDGET FOR ENTIRE MODEL
                     AT END OF TIME STEP  175 IN STRESS PERIOD   1
                                      ZONE     2
  -----------------------------------------------------------------------------------

        CUMULATIVE VOLUMES      L**3       RATES FOR THIS TIME STEP      L**3/T
        ------------------                 ------------------------

              IN:                                      IN:
              ---                                      ---
             BOUNDARIES =       1.3798E-13            BOUNDARIES =       6.4342E-13
          CONSTANT HEAD =       1.6744E-03         CONSTANT HEAD =       4.2007E-03
            ZONE CHANGE =       7.0767E-05           ZONE CHANGE =       1.6469E-04
       ZONE CHG TIP/TOE =       3.7562E-07      ZONE CHG TIP/TOE =       1.3999E-06
            ZONE MIXING =           0.0000           ZONE MIXING =           0.0000

               TOTAL IN =       1.7456E-03              TOTAL IN =       4.3668E-03

             OUT:                                     OUT:
             ----                                     ----
             BOUNDARIES =       1.3725E-13            BOUNDARIES =       6.2841E-13
          CONSTANT HEAD =           0.0000         CONSTANT HEAD =           0.0000
            ZONE CHANGE =       1.7295E-03           ZONE CHANGE =       4.3579E-03
       ZONE CHG TIP/TOE =       1.6990E-05      ZONE CHG TIP/TOE =       1.1081E-05
            ZONE MIXING =           0.0000           ZONE MIXING =           0.0000

              TOTAL OUT =       1.7465E-03             TOTAL OUT =       4.3689E-03

               IN - OUT =      -8.6252E-07              IN - OUT =      -2.1495E-06

    PERCENT DISCREPANCY =          -0.05     PERCENT DISCREPANCY =          -0.05


 HEAD WILL BE SAVED ON UNIT   51 AT END OF TIME STEP  175, STRESS PERIOD    1
1
  VOLUMETRIC BUDGET FOR ENTIRE MODEL AT END OF TIME STEP  175, STRESS PERIOD   1
  ------------------------------------------------------------------------------

     CUMULATIVE VOLUMES      L**3       RATES FOR THIS TIME STEP      L**3/T
     ------------------                 ------------------------

           IN:                                      IN:
           ---                                      ---
             STORAGE =       6.9760E-05               STORAGE =       1.3925E-05
       CONSTANT HEAD =       3.4843E-02         CONSTANT HEAD =           0.1641
               WELLS =           0.0000                 WELLS =           0.0000
          SWIADDTOCH =           0.0000            SWIADDTOCH =           0.0000

            TOTAL IN =       3.4913E-02              TOTAL IN =           0.1642

          OUT:                                     OUT:
          ----                                     ----
             STORAGE =       8.6184E-10               STORAGE =       4.8205E-09
       CONSTANT HEAD =           0.0000         CONSTANT HEAD =           0.0000
               WELLS =       3.4913E-02                 WELLS =           0.1642
          SWIADDTOCH =       1.4197E-09            SWIADDTOCH =       7.2332E-08

           TOTAL OUT =       3.4913E-02             TOTAL OUT =           0.1642

            IN - OUT =      -2.9802E-08              IN - OUT =       1.4901E-07

 PERCENT DISCREPANCY =          -0.00     PERCENT DISCREPANCY =           0.00






         TIME SUMMARY AT END OF TIME STEP  175 IN STRESS PERIOD    1
                    SECONDS     MINUTES      HOURS       DAYS        YEARS
                    -----------------------------------------------------------
   TIME STEP LENGTH  105.00      1.7500     2.91667E-02 1.21528E-03 3.32726E-06
 STRESS PERIOD TIME  18375.      306.25      5.1042     0.21267     5.82269E-04
         TOTAL TIME  18375.      306.25      5.1042     0.21267     5.82269E-04
1

 SOLVING FOR HEAD 
     2 EXTERNAL ITERATIONS FOR TIME STEP 176 IN STRESS PERIOD    1

 MAXIMUM HEAD CHANGE FOR EACH ITERATION:

     HEAD CHANGE  LAY,ROW,COL      HEAD CHANGE  LAY,ROW,COL  
 ------------------------------------------------------------
    -2.009E-05 (  6,    1, 1000)  -1.846E-07 (  6,    1,  999)



 OUTPUT CONTROL FOR STRESS PERIOD    1   TIME STEP  176
    PRINT BUDGET
    SAVE HEAD FOR ALL LAYERS
 SOLVING FOR ZETA FOR LAYER     6 ZONE     2

     494 UPPER PART EQS.       496 LOWER PART EQS.    BAND WIDTH + 1 =    3
 STRESS PERIOD=  1 TIMESTEP=176 LAYER=  6 ZONE=  2 ACTIVE CELLS=  990 NUMBER OF EQUATIONS=     990
 UBUDSV SAVING "      ZETASRF  1" ON UNIT 55 AT TIME STEP176, STRESS PERIOD    1


                      VOLUMETRIC SWI ZONE BUDGET FOR ENTIRE MODEL
                     AT END OF TIME STEP  176 IN STRESS PERIOD   1
                                      ZONE     1
  -----------------------------------------------------------------------------------

        CUMULATIVE VOLUMES      L**3       RATES FOR THIS TIME STEP      L**3/T
        ------------------                 ------------------------

              IN:                                      IN:
              ---                                      ---
             BOUNDARIES =       3.5517E-08            BOUNDARIES =       1.6772E-07
          CONSTANT HEAD =       3.3363E-02         CONSTANT HEAD =           0.1600
            ZONE CHANGE =       1.8045E-03           ZONE CHANGE =       4.3246E-03
       ZONE CHG TIP/TOE =       2.0514E-05      ZONE CHG TIP/TOE =       1.7247E-05
            ZONE MIXING =           0.0000           ZONE MIXING =           0.0000

               TOTAL IN =       3.5188E-02              TOTAL IN =           0.1643

             OUT:                                     OUT:
             ----                                     ----
             BOUNDARIES =       3.5112E-02            BOUNDARIES =           0.1642
          CONSTANT HEAD =           0.0000         CONSTANT HEAD =           0.0000
            ZONE CHANGE =       7.4461E-05           ZONE CHANGE =       1.5678E-04
       ZONE CHG TIP/TOE =       3.8110E-07      ZONE CHG TIP/TOE =       4.5046E-06
            ZONE MIXING =           0.0000           ZONE MIXING =           0.0000

              TOTAL OUT =       3.5187E-02             TOTAL OUT =           0.1643

               IN - OUT =       9.3877E-07              IN - OUT =      -6.5267E-06

    PERCENT DISCREPANCY =           0.00     PERCENT DISCREPANCY =          -0.00



                      VOLUMETRIC SWI ZONE BUDGET FOR ENTIRE MODEL
                     AT END OF TIME STEP  176 IN STRESS PERIOD   1
                                      ZONE     2
  -----------------------------------------------------------------------------------

        CUMULATIVE VOLUMES      L**3       RATES FOR THIS TIME STEP      L**3/T
        ------------------                 ------------------------

              IN:                                      IN:
              ---                                      ---
             BOUNDARIES =       1.3878E-13            BOUNDARIES =       6.6315E-13
          CONSTANT HEAD =       1.6795E-03         CONSTANT HEAD =       4.1734E-03
            ZONE CHANGE =       7.0949E-05           ZONE CHANGE =       1.4912E-04
       ZONE CHG TIP/TOE =       3.8110E-07      ZONE CHG TIP/TOE =       4.5046E-06
            ZONE MIXING =           0.0000           ZONE MIXING =           0.0000

               TOTAL IN =       1.7508E-03              TOTAL IN =       4.3270E-03

             OUT:                                     OUT:
             ----                                     ----
             BOUNDARIES =       1.3802E-13            BOUNDARIES =       6.3180E-13
          CONSTANT HEAD =           0.0000         CONSTANT HEAD =           0.0000
            ZONE CHANGE =       1.7347E-03           ZONE CHANGE =       4.3104E-03
       ZONE CHG TIP/TOE =       1.7002E-05      ZONE CHG TIP/TOE =       9.5875E-06
            ZONE MIXING =           0.0000           ZONE MIXING =           0.0000

              TOTAL OUT =       1.7517E-03             TOTAL OUT =       4.3200E-03

               IN - OUT =      -8.5391E-07              IN - OUT =       6.9933E-06

    PERCENT DISCREPANCY =          -0.05     PERCENT DISCREPANCY =           0.16


 HEAD WILL BE SAVED ON UNIT   51 AT END OF TIME STEP  176, STRESS PERIOD    1
1
  VOLUMETRIC BUDGET FOR ENTIRE MODEL AT END OF TIME STEP  176, STRESS PERIOD   1
  ------------------------------------------------------------------------------

     CUMULATIVE VOLUMES      L**3       RATES FOR THIS TIME STEP      L**3/T
     ------------------                 ------------------------

           IN:                                      IN:
           ---                                      ---
             STORAGE =       6.9777E-05               STORAGE =       1.3870E-05
       CONSTANT HEAD =       3.5042E-02         CONSTANT HEAD =           0.1641
               WELLS =           0.0000                 WELLS =           0.0000
          SWIADDTOCH =           0.0000            SWIADDTOCH =           0.0000

            TOTAL IN =       3.5112E-02              TOTAL IN =           0.1642

          OUT:                                     OUT:
          ----                                     ----
             STORAGE =       8.7223E-10               STORAGE =       8.5441E-09
       CONSTANT HEAD =           0.0000         CONSTANT HEAD =           0.0000
               WELLS =       3.5112E-02                 WELLS =           0.1642
          SWIADDTOCH =       1.4197E-09            SWIADDTOCH =           0.0000

           TOTAL OUT =       3.5112E-02             TOTAL OUT =           0.1642

            IN - OUT =      -2.9802E-08              IN - OUT =       1.4901E-07

 PERCENT DISCREPANCY =          -0.00     PERCENT DISCREPANCY =           0.00






         TIME SUMMARY AT END OF TIME STEP  176 IN STRESS PERIOD    1
                    SECONDS     MINUTES      HOURS       DAYS        YEARS
                    -----------------------------------------------------------
   TIME STEP LENGTH  105.00      1.7500     2.91667E-02 1.21528E-03 3.32726E-06
 STRESS PERIOD TIME  18480.      308.00      5.1333     0.21389     5.85597E-04
         TOTAL TIME  18480.      308.00      5.1333     0.21389     5.85597E-04
1

 SOLVING FOR HEAD 
     2 EXTERNAL ITERATIONS FOR TIME STEP 177 IN STRESS PERIOD    1

 MAXIMUM HEAD CHANGE FOR EACH ITERATION:

     HEAD CHANGE  LAY,ROW,COL      HEAD CHANGE  LAY,ROW,COL  
 ------------------------------------------------------------
    -2.014E-05 (  6,    1, 1000)  -1.841E-07 (  6,    1, 1000)



 OUTPUT CONTROL FOR STRESS PERIOD    1   TIME STEP  177
    PRINT BUDGET
    SAVE HEAD FOR ALL LAYERS
 SOLVING FOR ZETA FOR LAYER     6 ZONE     2

     497 UPPER PART EQS.       494 LOWER PART EQS.    BAND WIDTH + 1 =    5
 STRESS PERIOD=  1 TIMESTEP=177 LAYER=  6 ZONE=  2 ACTIVE CELLS=  991 NUMBER OF EQUATIONS=     991
 UBUDSV SAVING "      ZETASRF  1" ON UNIT 55 AT TIME STEP177, STRESS PERIOD    1


                      VOLUMETRIC SWI ZONE BUDGET FOR ENTIRE MODEL
                     AT END OF TIME STEP  177 IN STRESS PERIOD   1
                                      ZONE     1
  -----------------------------------------------------------------------------------

        CUMULATIVE VOLUMES      L**3       RATES FOR THIS TIME STEP      L**3/T
        ------------------                 ------------------------

              IN:                                      IN:
              ---                                      ---
             BOUNDARIES =       3.5721E-08            BOUNDARIES =       1.6830E-07
          CONSTANT HEAD =       3.3557E-02         CONSTANT HEAD =           0.1600
            ZONE CHANGE =       1.8097E-03           ZONE CHANGE =       4.2827E-03
       ZONE CHG TIP/TOE =       2.0528E-05      ZONE CHG TIP/TOE =       1.1859E-05
            ZONE MIXING =           0.0000           ZONE MIXING =           0.0000

               TOTAL IN =       3.5388E-02              TOTAL IN =           0.1643

             OUT:                                     OUT:
             ----                                     ----
             BOUNDARIES =       3.5312E-02            BOUNDARIES =           0.1642
          CONSTANT HEAD =           0.0000         CONSTANT HEAD =           0.0000
            ZONE CHANGE =       7.4632E-05           ZONE CHANGE =       1.4127E-04
       ZONE CHG TIP/TOE =       3.8478E-07      ZONE CHG TIP/TOE =       3.0338E-06
            ZONE MIXING =           0.0000           ZONE MIXING =           0.0000

              TOTAL OUT =       3.5387E-02             TOTAL OUT =           0.1643

               IN - OUT =       9.2760E-07              IN - OUT =      -9.7901E-06

    PERCENT DISCREPANCY =           0.00     PERCENT DISCREPANCY =          -0.01



                      VOLUMETRIC SWI ZONE BUDGET FOR ENTIRE MODEL
                     AT END OF TIME STEP  177 IN STRESS PERIOD   1
                                      ZONE     2
  -----------------------------------------------------------------------------------

        CUMULATIVE VOLUMES      L**3       RATES FOR THIS TIME STEP      L**3/T
        ------------------                 ------------------------

              IN:                                      IN:
              ---                                      ---
             BOUNDARIES =       1.3959E-13            BOUNDARIES =       6.6650E-13
          CONSTANT HEAD =       1.6846E-03         CONSTANT HEAD =       4.1464E-03
            ZONE CHANGE =       7.1112E-05           ZONE CHANGE =       1.3465E-04
       ZONE CHG TIP/TOE =       3.8478E-07      ZONE CHG TIP/TOE =       3.0338E-06
            ZONE MIXING =           0.0000           ZONE MIXING =           0.0000

               TOTAL IN =       1.7561E-03              TOTAL IN =       4.2841E-03

             OUT:                                     OUT:
             ----                                     ----
             BOUNDARIES =       1.3883E-13            BOUNDARIES =       6.7363E-13
          CONSTANT HEAD =           0.0000         CONSTANT HEAD =           0.0000
            ZONE CHANGE =       1.7399E-03           ZONE CHANGE =       4.2686E-03
       ZONE CHG TIP/TOE =       1.7008E-05      ZONE CHG TIP/TOE =       5.2402E-06
            ZONE MIXING =           0.0000           ZONE MIXING =           0.0000

              TOTAL OUT =       1.7569E-03             TOTAL OUT =       4.2739E-03

               IN - OUT =      -8.4168E-07              IN - OUT =       1.0240E-05

    PERCENT DISCREPANCY =          -0.05     PERCENT DISCREPANCY =           0.24


 HEAD WILL BE SAVED ON UNIT   51 AT END OF TIME STEP  177, STRESS PERIOD    1
1
  VOLUMETRIC BUDGET FOR ENTIRE MODEL AT END OF TIME STEP  177, STRESS PERIOD   1
  ------------------------------------------------------------------------------

     CUMULATIVE VOLUMES      L**3       RATES FOR THIS TIME STEP      L**3/T
     ------------------                 ------------------------

           IN:                                      IN:
           ---                                      ---
             STORAGE =       6.9794E-05               STORAGE =       1.3809E-05
       CONSTANT HEAD =       3.5242E-02         CONSTANT HEAD =           0.1641
               WELLS =           0.0000                 WELLS =           0.0000
          SWIADDTOCH =           0.0000            SWIADDTOCH =           0.0000

            TOTAL IN =       3.5312E-02              TOTAL IN =           0.1642

          OUT:                                     OUT:
          ----                                     ----
             STORAGE =       8.7808E-10               STORAGE =       4.8171E-09
       CONSTANT HEAD =           0.0000         CONSTANT HEAD =           0.0000
               WELLS =       3.5312E-02                 WELLS =           0.1642
          SWIADDTOCH =       1.4197E-09            SWIADDTOCH =           0.0000

           TOTAL OUT =       3.5312E-02             TOTAL OUT =           0.1642

            IN - OUT =      -2.9802E-08              IN - OUT =       1.6391E-07

 PERCENT DISCREPANCY =          -0.00     PERCENT DISCREPANCY =           0.00






         TIME SUMMARY AT END OF TIME STEP  177 IN STRESS PERIOD    1
                    SECONDS     MINUTES      HOURS       DAYS        YEARS
                    -----------------------------------------------------------
   TIME STEP LENGTH  105.00      1.7500     2.91667E-02 1.21528E-03 3.32726E-06
 STRESS PERIOD TIME  18585.      309.75      5.1625     0.21510     5.88924E-04
         TOTAL TIME  18585.      309.75      5.1625     0.21510     5.88924E-04
1

 SOLVING FOR HEAD 
     2 EXTERNAL ITERATIONS FOR TIME STEP 178 IN STRESS PERIOD    1

 MAXIMUM HEAD CHANGE FOR EACH ITERATION:

     HEAD CHANGE  LAY,ROW,COL      HEAD CHANGE  LAY,ROW,COL  
 ------------------------------------------------------------
    -2.019E-05 (  6,    1, 1000)  -1.835E-07 (  6,    1,  999)



 OUTPUT CONTROL FOR STRESS PERIOD    1   TIME STEP  178
    PRINT BUDGET
    SAVE HEAD FOR ALL LAYERS
 SOLVING FOR ZETA FOR LAYER     6 ZONE     2

     495 UPPER PART EQS.       497 LOWER PART EQS.    BAND WIDTH + 1 =    2
 STRESS PERIOD=  1 TIMESTEP=178 LAYER=  6 ZONE=  2 ACTIVE CELLS=  992 NUMBER OF EQUATIONS=     992
 UBUDSV SAVING "      ZETASRF  1" ON UNIT 55 AT TIME STEP178, STRESS PERIOD    1


                      VOLUMETRIC SWI ZONE BUDGET FOR ENTIRE MODEL
                     AT END OF TIME STEP  178 IN STRESS PERIOD   1
                                      ZONE     1
  -----------------------------------------------------------------------------------

        CUMULATIVE VOLUMES      L**3       RATES FOR THIS TIME STEP      L**3/T
        ------------------                 ------------------------

              IN:                                      IN:
              ---                                      ---
             BOUNDARIES =       3.5928E-08            BOUNDARIES =       1.7031E-07
          CONSTANT HEAD =       3.3752E-02         CONSTANT HEAD =           0.1600
            ZONE CHANGE =       1.8149E-03           ZONE CHANGE =       4.2265E-03
       ZONE CHG TIP/TOE =       2.0538E-05      ZONE CHG TIP/TOE =       8.3421E-06
            ZONE MIXING =           0.0000           ZONE MIXING =           0.0000

               TOTAL IN =       3.5587E-02              TOTAL IN =           0.1643

             OUT:                                     OUT:
             ----                                     ----
             BOUNDARIES =       3.5511E-02            BOUNDARIES =           0.1642
          CONSTANT HEAD =           0.0000         CONSTANT HEAD =           0.0000
            ZONE CHANGE =       7.4765E-05           ZONE CHANGE =       1.0938E-04
       ZONE CHG TIP/TOE =       3.8537E-07      ZONE CHG TIP/TOE =       4.7864E-07
            ZONE MIXING =           0.0000           ZONE MIXING =           0.0000

              TOTAL OUT =       3.5586E-02             TOTAL OUT =           0.1643

               IN - OUT =       9.1642E-07              IN - OUT =      -8.1956E-06

    PERCENT DISCREPANCY =           0.00     PERCENT DISCREPANCY =          -0.00



                      VOLUMETRIC SWI ZONE BUDGET FOR ENTIRE MODEL
                     AT END OF TIME STEP  178 IN STRESS PERIOD   1
                                      ZONE     2
  -----------------------------------------------------------------------------------

        CUMULATIVE VOLUMES      L**3       RATES FOR THIS TIME STEP      L**3/T
        ------------------                 ------------------------

              IN:                                      IN:
              ---                                      ---
             BOUNDARIES =       1.4048E-13            BOUNDARIES =       7.3356E-13
          CONSTANT HEAD =       1.6896E-03         CONSTANT HEAD =       4.1195E-03
            ZONE CHANGE =       7.1242E-05           ZONE CHANGE =       1.0639E-04
       ZONE CHG TIP/TOE =       3.8537E-07      ZONE CHG TIP/TOE =       4.7864E-07
            ZONE MIXING =           0.0000           ZONE MIXING =           0.0000

               TOTAL IN =       1.7612E-03              TOTAL IN =       4.2264E-03

             OUT:                                     OUT:
             ----                                     ----
             BOUNDARIES =       1.3957E-13            BOUNDARIES =       6.0536E-13
          CONSTANT HEAD =           0.0000         CONSTANT HEAD =           0.0000
            ZONE CHANGE =       1.7450E-03           ZONE CHANGE =       4.2124E-03
       ZONE CHG TIP/TOE =       1.7015E-05      ZONE CHG TIP/TOE =       5.3473E-06
            ZONE MIXING =           0.0000           ZONE MIXING =           0.0000

              TOTAL OUT =       1.7620E-03             TOTAL OUT =       4.2178E-03

               IN - OUT =      -8.3097E-07              IN - OUT =       8.6403E-06

    PERCENT DISCREPANCY =          -0.05     PERCENT DISCREPANCY =           0.20


 HEAD WILL BE SAVED ON UNIT   51 AT END OF TIME STEP  178, STRESS PERIOD    1
1
  VOLUMETRIC BUDGET FOR ENTIRE MODEL AT END OF TIME STEP  178, STRESS PERIOD   1
  ------------------------------------------------------------------------------

     CUMULATIVE VOLUMES      L**3       RATES FOR THIS TIME STEP      L**3/T
     ------------------                 ------------------------

           IN:                                      IN:
           ---                                      ---
             STORAGE =       6.9810E-05               STORAGE =       1.3758E-05
       CONSTANT HEAD =       3.5441E-02         CONSTANT HEAD =           0.1641
               WELLS =           0.0000                 WELLS =           0.0000
          SWIADDTOCH =           0.0000            SWIADDTOCH =           0.0000

            TOTAL IN =       3.5511E-02              TOTAL IN =           0.1642

          OUT:                                     OUT:
          ----                                     ----
             STORAGE =       8.8167E-10               STORAGE =       2.9529E-09
       CONSTANT HEAD =           0.0000         CONSTANT HEAD =           0.0000
               WELLS =       3.5511E-02                 WELLS =           0.1642
          SWIADDTOCH =       1.4197E-09            SWIADDTOCH =           0.0000

           TOTAL OUT =       3.5511E-02             TOTAL OUT =           0.1642

            IN - OUT =      -2.6077E-08              IN - OUT =       1.4901E-07

 PERCENT DISCREPANCY =          -0.00     PERCENT DISCREPANCY =           0.00






         TIME SUMMARY AT END OF TIME STEP  178 IN STRESS PERIOD    1
                    SECONDS     MINUTES      HOURS       DAYS        YEARS
                    -----------------------------------------------------------
   TIME STEP LENGTH  105.00      1.7500     2.91667E-02 1.21528E-03 3.32726E-06
 STRESS PERIOD TIME  18690.      311.50      5.1917     0.21632     5.92251E-04
         TOTAL TIME  18690.      311.50      5.1917     0.21632     5.92251E-04
1

 SOLVING FOR HEAD 
     2 EXTERNAL ITERATIONS FOR TIME STEP 179 IN STRESS PERIOD    1

 MAXIMUM HEAD CHANGE FOR EACH ITERATION:

     HEAD CHANGE  LAY,ROW,COL      HEAD CHANGE  LAY,ROW,COL  
 ------------------------------------------------------------
    -2.041E-05 (  6,    1, 1000)  -1.868E-07 (  6,    1, 1000)



 OUTPUT CONTROL FOR STRESS PERIOD    1   TIME STEP  179
    PRINT BUDGET
    SAVE HEAD FOR ALL LAYERS
 SOLVING FOR ZETA FOR LAYER     6 ZONE     2

     497 UPPER PART EQS.       497 LOWER PART EQS.    BAND WIDTH + 1 =    3
 STRESS PERIOD=  1 TIMESTEP=179 LAYER=  6 ZONE=  2 ACTIVE CELLS=  994 NUMBER OF EQUATIONS=     994
 UBUDSV SAVING "      ZETASRF  1" ON UNIT 55 AT TIME STEP179, STRESS PERIOD    1


                      VOLUMETRIC SWI ZONE BUDGET FOR ENTIRE MODEL
                     AT END OF TIME STEP  179 IN STRESS PERIOD   1
                                      ZONE     1
  -----------------------------------------------------------------------------------

        CUMULATIVE VOLUMES      L**3       RATES FOR THIS TIME STEP      L**3/T
        ------------------                 ------------------------

              IN:                                      IN:
              ---                                      ---
             BOUNDARIES =       3.6120E-08            BOUNDARIES =       1.5762E-07
          CONSTANT HEAD =       3.3946E-02         CONSTANT HEAD =           0.1601
            ZONE CHANGE =       1.8200E-03           ZONE CHANGE =       4.1855E-03
       ZONE CHG TIP/TOE =       2.0545E-05      ZONE CHG TIP/TOE =       5.4263E-06
            ZONE MIXING =           0.0000           ZONE MIXING =           0.0000

               TOTAL IN =       3.5787E-02              TOTAL IN =           0.1642

             OUT:                                     OUT:
             ----                                     ----
             BOUNDARIES =       3.5711E-02            BOUNDARIES =           0.1642
          CONSTANT HEAD =           0.0000         CONSTANT HEAD =           0.0000
            ZONE CHANGE =       7.4875E-05           ZONE CHANGE =       9.0614E-05
       ZONE CHG TIP/TOE =       3.8539E-07      ZONE CHG TIP/TOE =       2.0576E-08
            ZONE MIXING =           0.0000           ZONE MIXING =           0.0000

              TOTAL OUT =       3.5786E-02             TOTAL OUT =           0.1643

               IN - OUT =       9.1270E-07              IN - OUT =      -7.2271E-06

    PERCENT DISCREPANCY =           0.00     PERCENT DISCREPANCY =          -0.00



                      VOLUMETRIC SWI ZONE BUDGET FOR ENTIRE MODEL
                     AT END OF TIME STEP  179 IN STRESS PERIOD   1
                                      ZONE     2
  -----------------------------------------------------------------------------------

        CUMULATIVE VOLUMES      L**3       RATES FOR THIS TIME STEP      L**3/T
        ------------------                 ------------------------

              IN:                                      IN:
              ---                                      ---
             BOUNDARIES =       1.4127E-13            BOUNDARIES =       6.4725E-13
          CONSTANT HEAD =       1.6945E-03         CONSTANT HEAD =       4.0938E-03
            ZONE CHANGE =       7.1349E-05           ZONE CHANGE =       8.8248E-05
       ZONE CHG TIP/TOE =       3.8539E-07      ZONE CHG TIP/TOE =       2.0576E-08
            ZONE MIXING =           0.0000           ZONE MIXING =           0.0000

               TOTAL IN =       1.7663E-03              TOTAL IN =       4.1820E-03

             OUT:                                     OUT:
             ----                                     ----
             BOUNDARIES =       1.4040E-13            BOUNDARIES =       6.7849E-13
          CONSTANT HEAD =           0.0000         CONSTANT HEAD =           0.0000
            ZONE CHANGE =       1.7501E-03           ZONE CHANGE =       4.1713E-03
       ZONE CHG TIP/TOE =       1.7018E-05      ZONE CHG TIP/TOE =       3.0610E-06
            ZONE MIXING =           0.0000           ZONE MIXING =           0.0000

              TOTAL OUT =       1.7671E-03             TOTAL OUT =       4.1743E-03

               IN - OUT =      -8.2166E-07              IN - OUT =       7.6941E-06

    PERCENT DISCREPANCY =          -0.05     PERCENT DISCREPANCY =           0.18


 HEAD WILL BE SAVED ON UNIT   51 AT END OF TIME STEP  179, STRESS PERIOD    1
1
  VOLUMETRIC BUDGET FOR ENTIRE MODEL AT END OF TIME STEP  179, STRESS PERIOD   1
  ------------------------------------------------------------------------------

     CUMULATIVE VOLUMES      L**3       RATES FOR THIS TIME STEP      L**3/T
     ------------------                 ------------------------

           IN:                                      IN:
           ---                                      ---
             STORAGE =       6.9827E-05               STORAGE =       1.3927E-05
       CONSTANT HEAD =       3.5641E-02         CONSTANT HEAD =           0.1641
               WELLS =           0.0000                 WELLS =           0.0000
          SWIADDTOCH =           0.0000            SWIADDTOCH =           0.0000

            TOTAL IN =       3.5711E-02              TOTAL IN =           0.1642

          OUT:                                     OUT:
          ----                                     ----
             STORAGE =       8.9091E-10               STORAGE =       7.6026E-09
       CONSTANT HEAD =           0.0000         CONSTANT HEAD =           0.0000
               WELLS =       3.5711E-02                 WELLS =           0.1642
          SWIADDTOCH =       1.5089E-09            SWIADDTOCH =       7.3389E-08

           TOTAL OUT =       3.5711E-02             TOTAL OUT =           0.1642

            IN - OUT =      -2.6077E-08              IN - OUT =       1.6391E-07

 PERCENT DISCREPANCY =          -0.00     PERCENT DISCREPANCY =           0.00






         TIME SUMMARY AT END OF TIME STEP  179 IN STRESS PERIOD    1
                    SECONDS     MINUTES      HOURS       DAYS        YEARS
                    -----------------------------------------------------------
   TIME STEP LENGTH  105.00      1.7500     2.91667E-02 1.21528E-03 3.32726E-06
 STRESS PERIOD TIME  18795.      313.25      5.2208     0.21753     5.95578E-04
         TOTAL TIME  18795.      313.25      5.2208     0.21753     5.95578E-04
1

 SOLVING FOR HEAD 
     2 EXTERNAL ITERATIONS FOR TIME STEP 180 IN STRESS PERIOD    1

 MAXIMUM HEAD CHANGE FOR EACH ITERATION:

     HEAD CHANGE  LAY,ROW,COL      HEAD CHANGE  LAY,ROW,COL  
 ------------------------------------------------------------
    -2.016E-05 (  6,    1, 1000)  -1.789E-07 (  6,    1, 1000)



 OUTPUT CONTROL FOR STRESS PERIOD    1   TIME STEP  180
    PRINT BUDGET
    SAVE HEAD FOR ALL LAYERS
 SOLVING FOR ZETA FOR LAYER     6 ZONE     2

     499 UPPER PART EQS.       498 LOWER PART EQS.    BAND WIDTH + 1 =    4
 STRESS PERIOD=  1 TIMESTEP=180 LAYER=  6 ZONE=  2 ACTIVE CELLS=  997 NUMBER OF EQUATIONS=     997
 UBUDSV SAVING "      ZETASRF  1" ON UNIT 55 AT TIME STEP180, STRESS PERIOD    1


                      VOLUMETRIC SWI ZONE BUDGET FOR ENTIRE MODEL
                     AT END OF TIME STEP  180 IN STRESS PERIOD   1
                                      ZONE     1
  -----------------------------------------------------------------------------------

        CUMULATIVE VOLUMES      L**3       RATES FOR THIS TIME STEP      L**3/T
        ------------------                 ------------------------

              IN:                                      IN:
              ---                                      ---
             BOUNDARIES =       3.6316E-08            BOUNDARIES =       1.6120E-07
          CONSTANT HEAD =       3.4141E-02         CONSTANT HEAD =           0.1601
            ZONE CHANGE =       1.8250E-03           ZONE CHANGE =       4.1639E-03
       ZONE CHG TIP/TOE =       2.0557E-05      ZONE CHG TIP/TOE =       1.0183E-05
            ZONE MIXING =           0.0000           ZONE MIXING =           0.0000

               TOTAL IN =       3.5986E-02              TOTAL IN =           0.1643

             OUT:                                     OUT:
             ----                                     ----
             BOUNDARIES =       3.5910E-02            BOUNDARIES =           0.1642
          CONSTANT HEAD =           0.0000         CONSTANT HEAD =           0.0000
            ZONE CHANGE =       7.4983E-05           ZONE CHANGE =       8.8633E-05
       ZONE CHG TIP/TOE =       3.8625E-07      ZONE CHG TIP/TOE =       7.0800E-07
            ZONE MIXING =           0.0000           ZONE MIXING =           0.0000

              TOTAL OUT =       3.5985E-02             TOTAL OUT =           0.1642

               IN - OUT =       9.1270E-07              IN - OUT =       5.5879E-06

    PERCENT DISCREPANCY =           0.00     PERCENT DISCREPANCY =           0.00



                      VOLUMETRIC SWI ZONE BUDGET FOR ENTIRE MODEL
                     AT END OF TIME STEP  180 IN STRESS PERIOD   1
                                      ZONE     2
  -----------------------------------------------------------------------------------

        CUMULATIVE VOLUMES      L**3       RATES FOR THIS TIME STEP      L**3/T
        ------------------                 ------------------------

              IN:                                      IN:
              ---                                      ---
             BOUNDARIES =       1.4208E-13            BOUNDARIES =       6.6418E-13
          CONSTANT HEAD =       1.6995E-03         CONSTANT HEAD =       4.0658E-03
            ZONE CHANGE =       7.1444E-05           ZONE CHANGE =       7.8453E-05
       ZONE CHG TIP/TOE =       3.8625E-07      ZONE CHG TIP/TOE =       7.0800E-07
            ZONE MIXING =           0.0000           ZONE MIXING =           0.0000

               TOTAL IN =       1.7713E-03              TOTAL IN =       4.1450E-03

             OUT:                                     OUT:
             ----                                     ----
             BOUNDARIES =       1.4115E-13            BOUNDARIES =       6.2129E-13
          CONSTANT HEAD =           0.0000         CONSTANT HEAD =           0.0000
            ZONE CHANGE =       1.7551E-03           ZONE CHANGE =       4.1501E-03
       ZONE CHG TIP/TOE =       1.7018E-05      ZONE CHG TIP/TOE =       2.3892E-09
            ZONE MIXING =           0.0000           ZONE MIXING =           0.0000

              TOTAL OUT =       1.7721E-03             TOTAL OUT =       4.1501E-03

               IN - OUT =      -8.2783E-07              IN - OUT =      -5.1353E-06

    PERCENT DISCREPANCY =          -0.05     PERCENT DISCREPANCY =          -0.12


 HEAD WILL BE SAVED ON UNIT   51 AT END OF TIME STEP  180, STRESS PERIOD    1
1
  VOLUMETRIC BUDGET FOR ENTIRE MODEL AT END OF TIME STEP  180, STRESS PERIOD   1
  ------------------------------------------------------------------------------

     CUMULATIVE VOLUMES      L**3       RATES FOR THIS TIME STEP      L**3/T
     ------------------                 ------------------------

           IN:                                      IN:
           ---                                      ---
             STORAGE =       6.9844E-05               STORAGE =       1.3545E-05
       CONSTANT HEAD =       3.5840E-02         CONSTANT HEAD =           0.1641
               WELLS =           0.0000                 WELLS =           0.0000
          SWIADDTOCH =           0.0000            SWIADDTOCH =           0.0000

            TOTAL IN =       3.5910E-02              TOTAL IN =           0.1642

          OUT:                                     OUT:
          ----                                     ----
             STORAGE =       8.9677E-10               STORAGE =       4.8191E-09
       CONSTANT HEAD =           0.0000         CONSTANT HEAD =           0.0000
               WELLS =       3.5910E-02                 WELLS =           0.1642
          SWIADDTOCH =       1.5089E-09            SWIADDTOCH =           0.0000

           TOTAL OUT =       3.5910E-02             TOTAL OUT =           0.1642

            IN - OUT =      -2.2352E-08              IN - OUT =       1.9372E-07

 PERCENT DISCREPANCY =          -0.00     PERCENT DISCREPANCY =           0.00






         TIME SUMMARY AT END OF TIME STEP  180 IN STRESS PERIOD    1
                    SECONDS     MINUTES      HOURS       DAYS        YEARS
                    -----------------------------------------------------------
   TIME STEP LENGTH  105.00      1.7500     2.91667E-02 1.21528E-03 3.32726E-06
 STRESS PERIOD TIME  18900.      315.00      5.2500     0.21875     5.98906E-04
         TOTAL TIME  18900.      315.00      5.2500     0.21875     5.98906E-04
1

 SOLVING FOR HEAD 
     2 EXTERNAL ITERATIONS FOR TIME STEP 181 IN STRESS PERIOD    1

 MAXIMUM HEAD CHANGE FOR EACH ITERATION:

     HEAD CHANGE  LAY,ROW,COL      HEAD CHANGE  LAY,ROW,COL  
 ------------------------------------------------------------
    -2.035E-05 (  6,    1, 1000)  -1.815E-07 (  6,    1, 1000)



 OUTPUT CONTROL FOR STRESS PERIOD    1   TIME STEP  181
    PRINT BUDGET
    SAVE HEAD FOR ALL LAYERS
 SOLVING FOR ZETA FOR LAYER     6 ZONE     2

     496 UPPER PART EQS.       498 LOWER PART EQS.    BAND WIDTH + 1 =    2
 STRESS PERIOD=  1 TIMESTEP=181 LAYER=  6 ZONE=  2 ACTIVE CELLS=  994 NUMBER OF EQUATIONS=     994
 UBUDSV SAVING "      ZETASRF  1" ON UNIT 55 AT TIME STEP181, STRESS PERIOD    1


                      VOLUMETRIC SWI ZONE BUDGET FOR ENTIRE MODEL
                     AT END OF TIME STEP  181 IN STRESS PERIOD   1
                                      ZONE     1
  -----------------------------------------------------------------------------------

        CUMULATIVE VOLUMES      L**3       RATES FOR THIS TIME STEP      L**3/T
        ------------------                 ------------------------

              IN:                                      IN:
              ---                                      ---
             BOUNDARIES =       3.6521E-08            BOUNDARIES =       1.6874E-07
          CONSTANT HEAD =       3.4335E-02         CONSTANT HEAD =           0.1601
            ZONE CHANGE =       1.8303E-03           ZONE CHANGE =       4.3154E-03
       ZONE CHG TIP/TOE =       2.0578E-05      ZONE CHG TIP/TOE =       1.6856E-05
            ZONE MIXING =           0.0000           ZONE MIXING =           0.0000

               TOTAL IN =       3.6186E-02              TOTAL IN =           0.1644

             OUT:                                     OUT:
             ----                                     ----
             BOUNDARIES =       3.6110E-02            BOUNDARIES =           0.1642
          CONSTANT HEAD =           0.0000         CONSTANT HEAD =           0.0000
            ZONE CHANGE =       7.5307E-05           ZONE CHANGE =       2.6649E-04
       ZONE CHG TIP/TOE =       3.8626E-07      ZONE CHG TIP/TOE =       3.5834E-09
            ZONE MIXING =           0.0000           ZONE MIXING =           0.0000

              TOTAL OUT =       3.6185E-02             TOTAL OUT =           0.1644

               IN - OUT =       9.3132E-07              IN - OUT =       1.3918E-05

    PERCENT DISCREPANCY =           0.00     PERCENT DISCREPANCY =           0.01



                      VOLUMETRIC SWI ZONE BUDGET FOR ENTIRE MODEL
                     AT END OF TIME STEP  181 IN STRESS PERIOD   1
                                      ZONE     2
  -----------------------------------------------------------------------------------

        CUMULATIVE VOLUMES      L**3       RATES FOR THIS TIME STEP      L**3/T
        ------------------                 ------------------------

              IN:                                      IN:
              ---                                      ---
             BOUNDARIES =       1.4291E-13            BOUNDARIES =       6.8738E-13
          CONSTANT HEAD =       1.7044E-03         CONSTANT HEAD =       4.0385E-03
            ZONE CHANGE =       7.1749E-05           ZONE CHANGE =       2.5097E-04
       ZONE CHG TIP/TOE =       3.8626E-07      ZONE CHG TIP/TOE =       3.5834E-09
            ZONE MIXING =           0.0000           ZONE MIXING =           0.0000

               TOTAL IN =       1.7765E-03              TOTAL IN =       4.2894E-03

             OUT:                                     OUT:
             ----                                     ----
             BOUNDARIES =       1.4190E-13            BOUNDARIES =       6.1950E-13
          CONSTANT HEAD =           0.0000         CONSTANT HEAD =           0.0000
            ZONE CHANGE =       1.7603E-03           ZONE CHANGE =       4.3015E-03
       ZONE CHG TIP/TOE =       1.7020E-05      ZONE CHG TIP/TOE =       1.3422E-06
            ZONE MIXING =           0.0000           ZONE MIXING =           0.0000

              TOTAL OUT =       1.7774E-03             TOTAL OUT =       4.3029E-03

               IN - OUT =      -8.4424E-07              IN - OUT =      -1.3459E-05

    PERCENT DISCREPANCY =          -0.05     PERCENT DISCREPANCY =          -0.31


 HEAD WILL BE SAVED ON UNIT   51 AT END OF TIME STEP  181, STRESS PERIOD    1
1
  VOLUMETRIC BUDGET FOR ENTIRE MODEL AT END OF TIME STEP  181, STRESS PERIOD   1
  ------------------------------------------------------------------------------

     CUMULATIVE VOLUMES      L**3       RATES FOR THIS TIME STEP      L**3/T
     ------------------                 ------------------------

           IN:                                      IN:
           ---                                      ---
             STORAGE =       6.9860E-05               STORAGE =       1.3512E-05
       CONSTANT HEAD =       3.6040E-02         CONSTANT HEAD =           0.1641
               WELLS =           0.0000                 WELLS =           0.0000
          SWIADDTOCH =           0.0000            SWIADDTOCH =           0.0000

            TOTAL IN =       3.6110E-02              TOTAL IN =           0.1642

          OUT:                                     OUT:
          ----                                     ----
             STORAGE =       9.0488E-10               STORAGE =       6.6739E-09
       CONSTANT HEAD =           0.0000         CONSTANT HEAD =           0.0000
               WELLS =       3.6110E-02                 WELLS =           0.1642
          SWIADDTOCH =       1.5089E-09            SWIADDTOCH =           0.0000

           TOTAL OUT =       3.6110E-02             TOTAL OUT =           0.1642

            IN - OUT =      -2.2352E-08              IN - OUT =       1.7881E-07

 PERCENT DISCREPANCY =          -0.00     PERCENT DISCREPANCY =           0.00






         TIME SUMMARY AT END OF TIME STEP  181 IN STRESS PERIOD    1
                    SECONDS     MINUTES      HOURS       DAYS        YEARS
                    -----------------------------------------------------------
   TIME STEP LENGTH  105.00      1.7500     2.91667E-02 1.21528E-03 3.32726E-06
 STRESS PERIOD TIME  19005.      316.75      5.2792     0.21997     6.02233E-04
         TOTAL TIME  19005.      316.75      5.2792     0.21997     6.02233E-04
1

 SOLVING FOR HEAD 
     2 EXTERNAL ITERATIONS FOR TIME STEP 182 IN STRESS PERIOD    1

 MAXIMUM HEAD CHANGE FOR EACH ITERATION:

     HEAD CHANGE  LAY,ROW,COL      HEAD CHANGE  LAY,ROW,COL  
 ------------------------------------------------------------
    -2.043E-05 (  6,    1, 1000)  -1.813E-07 (  6,    1, 1000)



 OUTPUT CONTROL FOR STRESS PERIOD    1   TIME STEP  182
    PRINT BUDGET
    SAVE HEAD FOR ALL LAYERS
 SOLVING FOR ZETA FOR LAYER     6 ZONE     2

     496 UPPER PART EQS.       498 LOWER PART EQS.    BAND WIDTH + 1 =    3
 STRESS PERIOD=  1 TIMESTEP=182 LAYER=  6 ZONE=  2 ACTIVE CELLS=  994 NUMBER OF EQUATIONS=     994
 UBUDSV SAVING "      ZETASRF  1" ON UNIT 55 AT TIME STEP182, STRESS PERIOD    1


                      VOLUMETRIC SWI ZONE BUDGET FOR ENTIRE MODEL
                     AT END OF TIME STEP  182 IN STRESS PERIOD   1
                                      ZONE     1
  -----------------------------------------------------------------------------------

        CUMULATIVE VOLUMES      L**3       RATES FOR THIS TIME STEP      L**3/T
        ------------------                 ------------------------

              IN:                                      IN:
              ---                                      ---
             BOUNDARIES =       3.6718E-08            BOUNDARIES =       1.6265E-07
          CONSTANT HEAD =       3.4530E-02         CONSTANT HEAD =           0.1601
            ZONE CHANGE =       1.8355E-03           ZONE CHANGE =       4.3231E-03
       ZONE CHG TIP/TOE =       2.0608E-05      ZONE CHG TIP/TOE =       2.4921E-05
            ZONE MIXING =           0.0000           ZONE MIXING =           0.0000

               TOTAL IN =       3.6386E-02              TOTAL IN =           0.1645

             OUT:                                     OUT:
             ----                                     ----
             BOUNDARIES =       3.6309E-02            BOUNDARIES =           0.1642
          CONSTANT HEAD =           0.0000         CONSTANT HEAD =           0.0000
            ZONE CHANGE =       7.5676E-05           ZONE CHANGE =       3.0337E-04
       ZONE CHG TIP/TOE =       3.8728E-07      ZONE CHG TIP/TOE =       8.4618E-07
            ZONE MIXING =           0.0000           ZONE MIXING =           0.0000

              TOTAL OUT =       3.6385E-02             TOTAL OUT =           0.1645

               IN - OUT =       9.5367E-07              IN - OUT =       1.8775E-05

    PERCENT DISCREPANCY =           0.00     PERCENT DISCREPANCY =           0.01



                      VOLUMETRIC SWI ZONE BUDGET FOR ENTIRE MODEL
                     AT END OF TIME STEP  182 IN STRESS PERIOD   1
                                      ZONE     2
  -----------------------------------------------------------------------------------

        CUMULATIVE VOLUMES      L**3       RATES FOR THIS TIME STEP      L**3/T
        ------------------                 ------------------------

              IN:                                      IN:
              ---                                      ---
             BOUNDARIES =       1.4375E-13            BOUNDARIES =       6.8443E-13
          CONSTANT HEAD =       1.7093E-03         CONSTANT HEAD =       4.0117E-03
            ZONE CHANGE =       7.2092E-05           ZONE CHANGE =       2.8199E-04
       ZONE CHG TIP/TOE =       3.8728E-07      ZONE CHG TIP/TOE =       8.4618E-07
            ZONE MIXING =           0.0000           ZONE MIXING =           0.0000

               TOTAL IN =       1.7817E-03              TOTAL IN =       4.2945E-03

             OUT:                                     OUT:
             ----                                     ----
             BOUNDARIES =       1.4274E-13            BOUNDARIES =       6.9143E-13
          CONSTANT HEAD =           0.0000         CONSTANT HEAD =           0.0000
            ZONE CHANGE =       1.7656E-03           ZONE CHANGE =       4.3093E-03
       ZONE CHG TIP/TOE =       1.7024E-05      ZONE CHG TIP/TOE =       3.5469E-06
            ZONE MIXING =           0.0000           ZONE MIXING =           0.0000

              TOTAL OUT =       1.7826E-03             TOTAL OUT =       4.3128E-03

               IN - OUT =      -8.6636E-07              IN - OUT =      -1.8308E-05

    PERCENT DISCREPANCY =          -0.05     PERCENT DISCREPANCY =          -0.43


 HEAD WILL BE SAVED ON UNIT   51 AT END OF TIME STEP  182, STRESS PERIOD    1
1
  VOLUMETRIC BUDGET FOR ENTIRE MODEL AT END OF TIME STEP  182, STRESS PERIOD   1
  ------------------------------------------------------------------------------

     CUMULATIVE VOLUMES      L**3       RATES FOR THIS TIME STEP      L**3/T
     ------------------                 ------------------------

           IN:                                      IN:
           ---                                      ---
             STORAGE =       6.9877E-05               STORAGE =       1.3511E-05
       CONSTANT HEAD =       3.6239E-02         CONSTANT HEAD =           0.1641
               WELLS =           0.0000                 WELLS =           0.0000
          SWIADDTOCH =           0.0000            SWIADDTOCH =           0.0000

            TOTAL IN =       3.6309E-02              TOTAL IN =           0.1642

          OUT:                                     OUT:
          ----                                     ----
             STORAGE =       9.1185E-10               STORAGE =       5.7415E-09
       CONSTANT HEAD =           0.0000         CONSTANT HEAD =           0.0000
               WELLS =       3.6309E-02                 WELLS =           0.1642
          SWIADDTOCH =       1.5089E-09            SWIADDTOCH =           0.0000

           TOTAL OUT =       3.6309E-02             TOTAL OUT =           0.1642

            IN - OUT =      -2.2352E-08              IN - OUT =       1.7881E-07

 PERCENT DISCREPANCY =          -0.00     PERCENT DISCREPANCY =           0.00






         TIME SUMMARY AT END OF TIME STEP  182 IN STRESS PERIOD    1
                    SECONDS     MINUTES      HOURS       DAYS        YEARS
                    -----------------------------------------------------------
   TIME STEP LENGTH  105.00      1.7500     2.91667E-02 1.21528E-03 3.32726E-06
 STRESS PERIOD TIME  19110.      318.50      5.3083     0.22118     6.05560E-04
         TOTAL TIME  19110.      318.50      5.3083     0.22118     6.05560E-04
1

 SOLVING FOR HEAD 
     2 EXTERNAL ITERATIONS FOR TIME STEP 183 IN STRESS PERIOD    1

 MAXIMUM HEAD CHANGE FOR EACH ITERATION:

     HEAD CHANGE  LAY,ROW,COL      HEAD CHANGE  LAY,ROW,COL  
 ------------------------------------------------------------
    -2.050E-05 (  6,    1, 1000)  -1.809E-07 (  6,    1, 1000)



 OUTPUT CONTROL FOR STRESS PERIOD    1   TIME STEP  183
    PRINT BUDGET
    SAVE HEAD FOR ALL LAYERS
 SOLVING FOR ZETA FOR LAYER     6 ZONE     2

     495 UPPER PART EQS.       496 LOWER PART EQS.    BAND WIDTH + 1 =    2
 STRESS PERIOD=  1 TIMESTEP=183 LAYER=  6 ZONE=  2 ACTIVE CELLS=  991 NUMBER OF EQUATIONS=     991
 UBUDSV SAVING "      ZETASRF  1" ON UNIT 55 AT TIME STEP183, STRESS PERIOD    1


                      VOLUMETRIC SWI ZONE BUDGET FOR ENTIRE MODEL
                     AT END OF TIME STEP  183 IN STRESS PERIOD   1
                                      ZONE     1
  -----------------------------------------------------------------------------------

        CUMULATIVE VOLUMES      L**3       RATES FOR THIS TIME STEP      L**3/T
        ------------------                 ------------------------

              IN:                                      IN:
              ---                                      ---
             BOUNDARIES =       3.6935E-08            BOUNDARIES =       1.7860E-07
          CONSTANT HEAD =       3.4725E-02         CONSTANT HEAD =           0.1602
            ZONE CHANGE =       1.8406E-03           ZONE CHANGE =       4.1979E-03
       ZONE CHG TIP/TOE =       2.0646E-05      ZONE CHG TIP/TOE =       3.1483E-05
            ZONE MIXING =           0.0000           ZONE MIXING =           0.0000

               TOTAL IN =       3.6586E-02              TOTAL IN =           0.1644

             OUT:                                     OUT:
             ----                                     ----
             BOUNDARIES =       3.6509E-02            BOUNDARIES =           0.1642
          CONSTANT HEAD =           0.0000         CONSTANT HEAD =           0.0000
            ZONE CHANGE =       7.5928E-05           ZONE CHANGE =       2.0755E-04
       ZONE CHG TIP/TOE =       3.9046E-07      ZONE CHG TIP/TOE =       2.6106E-06
            ZONE MIXING =           0.0000           ZONE MIXING =           0.0000

              TOTAL OUT =       3.6585E-02             TOTAL OUT =           0.1644

               IN - OUT =       9.7230E-07              IN - OUT =       2.0370E-05

    PERCENT DISCREPANCY =           0.00     PERCENT DISCREPANCY =           0.01



                      VOLUMETRIC SWI ZONE BUDGET FOR ENTIRE MODEL
                     AT END OF TIME STEP  183 IN STRESS PERIOD   1
                                      ZONE     2
  -----------------------------------------------------------------------------------

        CUMULATIVE VOLUMES      L**3       RATES FOR THIS TIME STEP      L**3/T
        ------------------                 ------------------------

              IN:                                      IN:
              ---                                      ---
             BOUNDARIES =       1.4452E-13            BOUNDARIES =       6.3897E-13
          CONSTANT HEAD =       1.7141E-03         CONSTANT HEAD =       3.9855E-03
            ZONE CHANGE =       7.2314E-05           ZONE CHANGE =       1.8259E-04
       ZONE CHG TIP/TOE =       3.9046E-07      ZONE CHG TIP/TOE =       2.6106E-06
            ZONE MIXING =           0.0000           ZONE MIXING =           0.0000

               TOTAL IN =       1.7868E-03              TOTAL IN =       4.1707E-03

             OUT:                                     OUT:
             ----                                     ----
             BOUNDARIES =       1.4352E-13            BOUNDARIES =       6.3554E-13
          CONSTANT HEAD =           0.0000         CONSTANT HEAD =           0.0000
            ZONE CHANGE =       1.7707E-03           ZONE CHANGE =       4.1841E-03
       ZONE CHG TIP/TOE =       1.7032E-05      ZONE CHG TIP/TOE =       6.5288E-06
            ZONE MIXING =           0.0000           ZONE MIXING =           0.0000

              TOTAL OUT =       1.7877E-03             TOTAL OUT =       4.1906E-03

               IN - OUT =      -8.9069E-07              IN - OUT =      -1.9888E-05

    PERCENT DISCREPANCY =          -0.05     PERCENT DISCREPANCY =          -0.48


 HEAD WILL BE SAVED ON UNIT   51 AT END OF TIME STEP  183, STRESS PERIOD    1
1
  VOLUMETRIC BUDGET FOR ENTIRE MODEL AT END OF TIME STEP  183, STRESS PERIOD   1
  ------------------------------------------------------------------------------

     CUMULATIVE VOLUMES      L**3       RATES FOR THIS TIME STEP      L**3/T
     ------------------                 ------------------------

           IN:                                      IN:
           ---                                      ---
             STORAGE =       6.9893E-05               STORAGE =       1.3454E-05
       CONSTANT HEAD =       3.6439E-02         CONSTANT HEAD =           0.1641
               WELLS =           0.0000                 WELLS =           0.0000
          SWIADDTOCH =           0.0000            SWIADDTOCH =           0.0000

            TOTAL IN =       3.6509E-02              TOTAL IN =           0.1642

          OUT:                                     OUT:
          ----                                     ----
             STORAGE =       9.1657E-10               STORAGE =       3.8785E-09
       CONSTANT HEAD =           0.0000         CONSTANT HEAD =           0.0000
               WELLS =       3.6509E-02                 WELLS =           0.1642
          SWIADDTOCH =       1.5089E-09            SWIADDTOCH =           0.0000

           TOTAL OUT =       3.6509E-02             TOTAL OUT =           0.1642

            IN - OUT =      -1.8626E-08              IN - OUT =       1.4901E-07

 PERCENT DISCREPANCY =          -0.00     PERCENT DISCREPANCY =           0.00






         TIME SUMMARY AT END OF TIME STEP  183 IN STRESS PERIOD    1
                    SECONDS     MINUTES      HOURS       DAYS        YEARS
                    -----------------------------------------------------------
   TIME STEP LENGTH  105.00      1.7500     2.91667E-02 1.21528E-03 3.32726E-06
 STRESS PERIOD TIME  19215.      320.25      5.3375     0.22240     6.08887E-04
         TOTAL TIME  19215.      320.25      5.3375     0.22240     6.08887E-04
1

 SOLVING FOR HEAD 
     2 EXTERNAL ITERATIONS FOR TIME STEP 184 IN STRESS PERIOD    1

 MAXIMUM HEAD CHANGE FOR EACH ITERATION:

     HEAD CHANGE  LAY,ROW,COL      HEAD CHANGE  LAY,ROW,COL  
 ------------------------------------------------------------
    -2.057E-05 (  6,    1, 1000)  -1.804E-07 (  6,    1,  999)



 OUTPUT CONTROL FOR STRESS PERIOD    1   TIME STEP  184
    PRINT BUDGET
    SAVE HEAD FOR ALL LAYERS
 SOLVING FOR ZETA FOR LAYER     6 ZONE     2

     495 UPPER PART EQS.       495 LOWER PART EQS.    BAND WIDTH + 1 =    3
 STRESS PERIOD=  1 TIMESTEP=184 LAYER=  6 ZONE=  2 ACTIVE CELLS=  990 NUMBER OF EQUATIONS=     990
 UBUDSV SAVING "      ZETASRF  1" ON UNIT 55 AT TIME STEP184, STRESS PERIOD    1


                      VOLUMETRIC SWI ZONE BUDGET FOR ENTIRE MODEL
                     AT END OF TIME STEP  184 IN STRESS PERIOD   1
                                      ZONE     1
  -----------------------------------------------------------------------------------

        CUMULATIVE VOLUMES      L**3       RATES FOR THIS TIME STEP      L**3/T
        ------------------                 ------------------------

              IN:                                      IN:
              ---                                      ---
             BOUNDARIES =       3.7144E-08            BOUNDARIES =       1.7131E-07
          CONSTANT HEAD =       3.4919E-02         CONSTANT HEAD =           0.1602
            ZONE CHANGE =       1.8456E-03           ZONE CHANGE =       4.1247E-03
       ZONE CHG TIP/TOE =       2.0688E-05      ZONE CHG TIP/TOE =       3.4132E-05
            ZONE MIXING =           0.0000           ZONE MIXING =           0.0000

               TOTAL IN =       3.6786E-02              TOTAL IN =           0.1643

             OUT:                                     OUT:
             ----                                     ----
             BOUNDARIES =       3.6708E-02            BOUNDARIES =           0.1642
          CONSTANT HEAD =           0.0000         CONSTANT HEAD =           0.0000
            ZONE CHANGE =       7.6128E-05           ZONE CHANGE =       1.6487E-04
       ZONE CHG TIP/TOE =       3.9266E-07      ZONE CHG TIP/TOE =       1.8094E-06
            ZONE MIXING =           0.0000           ZONE MIXING =           0.0000

              TOTAL OUT =       3.6785E-02             TOTAL OUT =           0.1643

               IN - OUT =       9.9838E-07              IN - OUT =       1.9163E-05

    PERCENT DISCREPANCY =           0.00     PERCENT DISCREPANCY =           0.01



                      VOLUMETRIC SWI ZONE BUDGET FOR ENTIRE MODEL
                     AT END OF TIME STEP  184 IN STRESS PERIOD   1
                                      ZONE     2
  -----------------------------------------------------------------------------------

        CUMULATIVE VOLUMES      L**3       RATES FOR THIS TIME STEP      L**3/T
        ------------------                 ------------------------

              IN:                                      IN:
              ---                                      ---
             BOUNDARIES =       1.4529E-13            BOUNDARIES =       6.3638E-13
          CONSTANT HEAD =       1.7189E-03         CONSTANT HEAD =       3.9597E-03
            ZONE CHANGE =       7.2485E-05           ZONE CHANGE =       1.4112E-04
       ZONE CHG TIP/TOE =       3.9266E-07      ZONE CHG TIP/TOE =       1.8094E-06
            ZONE MIXING =           0.0000           ZONE MIXING =           0.0000

               TOTAL IN =       1.7918E-03              TOTAL IN =       4.1027E-03

             OUT:                                     OUT:
             ----                                     ----
             BOUNDARIES =       1.4431E-13            BOUNDARIES =       6.5715E-13
          CONSTANT HEAD =           0.0000         CONSTANT HEAD =           0.0000
            ZONE CHANGE =       1.7757E-03           ZONE CHANGE =       4.1109E-03
       ZONE CHG TIP/TOE =       1.7045E-05      ZONE CHG TIP/TOE =       1.0389E-05
            ZONE MIXING =           0.0000           ZONE MIXING =           0.0000

              TOTAL OUT =       1.7927E-03             TOTAL OUT =       4.1213E-03

               IN - OUT =      -9.1339E-07              IN - OUT =      -1.8670E-05

    PERCENT DISCREPANCY =          -0.05     PERCENT DISCREPANCY =          -0.45


 HEAD WILL BE SAVED ON UNIT   51 AT END OF TIME STEP  184, STRESS PERIOD    1
1
  VOLUMETRIC BUDGET FOR ENTIRE MODEL AT END OF TIME STEP  184, STRESS PERIOD   1
  ------------------------------------------------------------------------------

     CUMULATIVE VOLUMES      L**3       RATES FOR THIS TIME STEP      L**3/T
     ------------------                 ------------------------

           IN:                                      IN:
           ---                                      ---
             STORAGE =       6.9909E-05               STORAGE =       1.3426E-05
       CONSTANT HEAD =       3.6638E-02         CONSTANT HEAD =           0.1641
               WELLS =           0.0000                 WELLS =           0.0000
          SWIADDTOCH =           0.0000            SWIADDTOCH =           0.0000

            TOTAL IN =       3.6708E-02              TOTAL IN =           0.1642

          OUT:                                     OUT:
          ----                                     ----
             STORAGE =       9.2241E-10               STORAGE =       4.8085E-09
       CONSTANT HEAD =           0.0000         CONSTANT HEAD =           0.0000
               WELLS =       3.6708E-02                 WELLS =           0.1642
          SWIADDTOCH =       1.5089E-09            SWIADDTOCH =           0.0000

           TOTAL OUT =       3.6708E-02             TOTAL OUT =           0.1642

            IN - OUT =      -1.8626E-08              IN - OUT =       1.6391E-07

 PERCENT DISCREPANCY =          -0.00     PERCENT DISCREPANCY =           0.00






         TIME SUMMARY AT END OF TIME STEP  184 IN STRESS PERIOD    1
                    SECONDS     MINUTES      HOURS       DAYS        YEARS
                    -----------------------------------------------------------
   TIME STEP LENGTH  105.00      1.7500     2.91667E-02 1.21528E-03 3.32726E-06
 STRESS PERIOD TIME  19320.      322.00      5.3667     0.22361     6.12215E-04
         TOTAL TIME  19320.      322.00      5.3667     0.22361     6.12215E-04
1

 SOLVING FOR HEAD 
     2 EXTERNAL ITERATIONS FOR TIME STEP 185 IN STRESS PERIOD    1

 MAXIMUM HEAD CHANGE FOR EACH ITERATION:

     HEAD CHANGE  LAY,ROW,COL      HEAD CHANGE  LAY,ROW,COL  
 ------------------------------------------------------------
    -2.064E-05 (  6,    1, 1000)  -1.802E-07 (  6,    1, 1000)



 OUTPUT CONTROL FOR STRESS PERIOD    1   TIME STEP  185
    PRINT BUDGET
    SAVE HEAD FOR ALL LAYERS
 SOLVING FOR ZETA FOR LAYER     6 ZONE     2
 STRESS PERIOD=  1 TIMESTEP=185 LAYER=  6 ZONE=  2 ACTIVE CELLS=  990 NUMBER OF EQUATIONS=     990
 UBUDSV SAVING "      ZETASRF  1" ON UNIT 55 AT TIME STEP185, STRESS PERIOD    1


                      VOLUMETRIC SWI ZONE BUDGET FOR ENTIRE MODEL
                     AT END OF TIME STEP  185 IN STRESS PERIOD   1
                                      ZONE     1
  -----------------------------------------------------------------------------------

        CUMULATIVE VOLUMES      L**3       RATES FOR THIS TIME STEP      L**3/T
        ------------------                 ------------------------

              IN:                                      IN:
              ---                                      ---
             BOUNDARIES =       3.7355E-08            BOUNDARIES =       1.7427E-07
          CONSTANT HEAD =       3.5114E-02         CONSTANT HEAD =           0.1602
            ZONE CHANGE =       1.8506E-03           ZONE CHANGE =       4.0918E-03
       ZONE CHG TIP/TOE =       2.0732E-05      ZONE CHG TIP/TOE =       3.6218E-05
            ZONE MIXING =           0.0000           ZONE MIXING =           0.0000

               TOTAL IN =       3.6985E-02              TOTAL IN =           0.1643

             OUT:                                     OUT:
             ----                                     ----
             BOUNDARIES =       3.6908E-02            BOUNDARIES =           0.1642
          CONSTANT HEAD =           0.0000         CONSTANT HEAD =           0.0000
            ZONE CHANGE =       7.6323E-05           ZONE CHANGE =       1.6042E-04
       ZONE CHG TIP/TOE =       3.9458E-07      ZONE CHG TIP/TOE =       1.5878E-06
            ZONE MIXING =           0.0000           ZONE MIXING =           0.0000

              TOTAL OUT =       3.6984E-02             TOTAL OUT =           0.1643

               IN - OUT =       1.0207E-06              IN - OUT =       1.8641E-05

    PERCENT DISCREPANCY =           0.00     PERCENT DISCREPANCY =           0.01



                      VOLUMETRIC SWI ZONE BUDGET FOR ENTIRE MODEL
                     AT END OF TIME STEP  185 IN STRESS PERIOD   1
                                      ZONE     2
  -----------------------------------------------------------------------------------

        CUMULATIVE VOLUMES      L**3       RATES FOR THIS TIME STEP      L**3/T
        ------------------                 ------------------------

              IN:                                      IN:
              ---                                      ---
             BOUNDARIES =       1.4608E-13            BOUNDARIES =       6.4326E-13
          CONSTANT HEAD =       1.7237E-03         CONSTANT HEAD =       3.9342E-03
            ZONE CHANGE =       7.2651E-05           ZONE CHANGE =       1.3644E-04
       ZONE CHG TIP/TOE =       3.9458E-07      ZONE CHG TIP/TOE =       1.5878E-06
            ZONE MIXING =           0.0000           ZONE MIXING =           0.0000

               TOTAL IN =       1.7967E-03              TOTAL IN =       4.0722E-03

             OUT:                                     OUT:
             ----                                     ----
             BOUNDARIES =       1.4509E-13            BOUNDARIES =       6.3622E-13
          CONSTANT HEAD =           0.0000         CONSTANT HEAD =           0.0000
            ZONE CHANGE =       1.7806E-03           ZONE CHANGE =       4.0781E-03
       ZONE CHG TIP/TOE =       1.7060E-05      ZONE CHG TIP/TOE =       1.2241E-05
            ZONE MIXING =           0.0000           ZONE MIXING =           0.0000

              TOTAL OUT =       1.7977E-03             TOTAL OUT =       4.0903E-03

               IN - OUT =      -9.3551E-07              IN - OUT =      -1.8138E-05

    PERCENT DISCREPANCY =          -0.05     PERCENT DISCREPANCY =          -0.44


 HEAD WILL BE SAVED ON UNIT   51 AT END OF TIME STEP  185, STRESS PERIOD    1
1
  VOLUMETRIC BUDGET FOR ENTIRE MODEL AT END OF TIME STEP  185, STRESS PERIOD   1
  ------------------------------------------------------------------------------

     CUMULATIVE VOLUMES      L**3       RATES FOR THIS TIME STEP      L**3/T
     ------------------                 ------------------------

           IN:                                      IN:
           ---                                      ---
             STORAGE =       6.9926E-05               STORAGE =       1.3378E-05
       CONSTANT HEAD =       3.6838E-02         CONSTANT HEAD =           0.1641
               WELLS =           0.0000                 WELLS =           0.0000
          SWIADDTOCH =           0.0000            SWIADDTOCH =           0.0000

            TOTAL IN =       3.6908E-02              TOTAL IN =           0.1642

          OUT:                                     OUT:
          ----                                     ----
             STORAGE =       9.2938E-10               STORAGE =       5.7382E-09
       CONSTANT HEAD =           0.0000         CONSTANT HEAD =           0.0000
               WELLS =       3.6908E-02                 WELLS =           0.1642
          SWIADDTOCH =       1.5089E-09            SWIADDTOCH =           0.0000

           TOTAL OUT =       3.6908E-02             TOTAL OUT =           0.1642

            IN - OUT =      -1.4901E-08              IN - OUT =       1.6391E-07

 PERCENT DISCREPANCY =          -0.00     PERCENT DISCREPANCY =           0.00






         TIME SUMMARY AT END OF TIME STEP  185 IN STRESS PERIOD    1
                    SECONDS     MINUTES      HOURS       DAYS        YEARS
                    -----------------------------------------------------------
   TIME STEP LENGTH  105.00      1.7500     2.91667E-02 1.21528E-03 3.32726E-06
 STRESS PERIOD TIME  19425.      323.75      5.3958     0.22483     6.15542E-04
         TOTAL TIME  19425.      323.75      5.3958     0.22483     6.15542E-04
1

 SOLVING FOR HEAD 
     2 EXTERNAL ITERATIONS FOR TIME STEP 186 IN STRESS PERIOD    1

 MAXIMUM HEAD CHANGE FOR EACH ITERATION:

     HEAD CHANGE  LAY,ROW,COL      HEAD CHANGE  LAY,ROW,COL  
 ------------------------------------------------------------
    -2.071E-05 (  6,    1, 1000)  -1.795E-07 (  6,    1,  999)



 OUTPUT CONTROL FOR STRESS PERIOD    1   TIME STEP  186
    PRINT BUDGET
    SAVE HEAD FOR ALL LAYERS
 SOLVING FOR ZETA FOR LAYER     6 ZONE     2

     494 UPPER PART EQS.       494 LOWER PART EQS.    BAND WIDTH + 1 =    3
 STRESS PERIOD=  1 TIMESTEP=186 LAYER=  6 ZONE=  2 ACTIVE CELLS=  988 NUMBER OF EQUATIONS=     988
 UBUDSV SAVING "      ZETASRF  1" ON UNIT 55 AT TIME STEP186, STRESS PERIOD    1


                      VOLUMETRIC SWI ZONE BUDGET FOR ENTIRE MODEL
                     AT END OF TIME STEP  186 IN STRESS PERIOD   1
                                      ZONE     1
  -----------------------------------------------------------------------------------

        CUMULATIVE VOLUMES      L**3       RATES FOR THIS TIME STEP      L**3/T
        ------------------                 ------------------------

              IN:                                      IN:
              ---                                      ---
             BOUNDARIES =       3.7576E-08            BOUNDARIES =       1.8142E-07
          CONSTANT HEAD =       3.5309E-02         CONSTANT HEAD =           0.1602
            ZONE CHANGE =       1.8556E-03           ZONE CHANGE =       4.0645E-03
       ZONE CHG TIP/TOE =       2.0776E-05      ZONE CHG TIP/TOE =       3.6114E-05
            ZONE MIXING =           0.0000           ZONE MIXING =           0.0000

               TOTAL IN =       3.7185E-02              TOTAL IN =           0.1643

             OUT:                                     OUT:
             ----                                     ----
             BOUNDARIES =       3.7107E-02            BOUNDARIES =           0.1642
          CONSTANT HEAD =           0.0000         CONSTANT HEAD =           0.0000
            ZONE CHANGE =       7.6521E-05           ZONE CHANGE =       1.6273E-04
       ZONE CHG TIP/TOE =       3.9541E-07      ZONE CHG TIP/TOE =       6.7615E-07
            ZONE MIXING =           0.0000           ZONE MIXING =           0.0000

              TOTAL OUT =       3.7184E-02             TOTAL OUT =           0.1643

               IN - OUT =       1.0431E-06              IN - OUT =       1.5423E-05

    PERCENT DISCREPANCY =           0.00     PERCENT DISCREPANCY =           0.01



                      VOLUMETRIC SWI ZONE BUDGET FOR ENTIRE MODEL
                     AT END OF TIME STEP  186 IN STRESS PERIOD   1
                                      ZONE     2
  -----------------------------------------------------------------------------------

        CUMULATIVE VOLUMES      L**3       RATES FOR THIS TIME STEP      L**3/T
        ------------------                 ------------------------

              IN:                                      IN:
              ---                                      ---
             BOUNDARIES =       1.4689E-13            BOUNDARIES =       6.7335E-13
          CONSTANT HEAD =       1.7285E-03         CONSTANT HEAD =       3.9087E-03
            ZONE CHANGE =       7.2823E-05           ZONE CHANGE =       1.4158E-04
       ZONE CHG TIP/TOE =       3.9541E-07      ZONE CHG TIP/TOE =       6.7615E-07
            ZONE MIXING =           0.0000           ZONE MIXING =           0.0000

               TOTAL IN =       1.8017E-03              TOTAL IN =       4.0510E-03

             OUT:                                     OUT:
             ----                                     ----
             BOUNDARIES =       1.4590E-13            BOUNDARIES =       6.7005E-13
          CONSTANT HEAD =           0.0000         CONSTANT HEAD =           0.0000
            ZONE CHANGE =       1.7855E-03           ZONE CHANGE =       4.0509E-03
       ZONE CHG TIP/TOE =       1.7078E-05      ZONE CHG TIP/TOE =       1.4971E-05
            ZONE MIXING =           0.0000           ZONE MIXING =           0.0000

              TOTAL OUT =       1.8026E-03             TOTAL OUT =       4.0659E-03

               IN - OUT =      -9.5344E-07              IN - OUT =      -1.4897E-05

    PERCENT DISCREPANCY =          -0.05     PERCENT DISCREPANCY =          -0.37


 HEAD WILL BE SAVED ON UNIT   51 AT END OF TIME STEP  186, STRESS PERIOD    1
1
  VOLUMETRIC BUDGET FOR ENTIRE MODEL AT END OF TIME STEP  186, STRESS PERIOD   1
  ------------------------------------------------------------------------------

     CUMULATIVE VOLUMES      L**3       RATES FOR THIS TIME STEP      L**3/T
     ------------------                 ------------------------

           IN:                                      IN:
           ---                                      ---
             STORAGE =       6.9942E-05               STORAGE =       1.3318E-05
       CONSTANT HEAD =       3.7037E-02         CONSTANT HEAD =           0.1641
               WELLS =           0.0000                 WELLS =           0.0000
          SWIADDTOCH =           0.0000            SWIADDTOCH =           0.0000

            TOTAL IN =       3.7107E-02              TOTAL IN =           0.1642

          OUT:                                     OUT:
          ----                                     ----
             STORAGE =       9.3749E-10               STORAGE =       6.6682E-09
       CONSTANT HEAD =           0.0000         CONSTANT HEAD =           0.0000
               WELLS =       3.7107E-02                 WELLS =           0.1642
          SWIADDTOCH =       1.5089E-09            SWIADDTOCH =           0.0000

           TOTAL OUT =       3.7107E-02             TOTAL OUT =           0.1642

            IN - OUT =      -1.4901E-08              IN - OUT =       1.4901E-07

 PERCENT DISCREPANCY =          -0.00     PERCENT DISCREPANCY =           0.00






         TIME SUMMARY AT END OF TIME STEP  186 IN STRESS PERIOD    1
                    SECONDS     MINUTES      HOURS       DAYS        YEARS
                    -----------------------------------------------------------
   TIME STEP LENGTH  105.00      1.7500     2.91667E-02 1.21528E-03 3.32726E-06
 STRESS PERIOD TIME  19530.      325.50      5.4250     0.22604     6.18869E-04
         TOTAL TIME  19530.      325.50      5.4250     0.22604     6.18869E-04
1

 SOLVING FOR HEAD 
     2 EXTERNAL ITERATIONS FOR TIME STEP 187 IN STRESS PERIOD    1

 MAXIMUM HEAD CHANGE FOR EACH ITERATION:

     HEAD CHANGE  LAY,ROW,COL      HEAD CHANGE  LAY,ROW,COL  
 ------------------------------------------------------------
    -2.080E-05 (  6,    1, 1000)  -1.792E-07 (  6,    1, 1000)



 OUTPUT CONTROL FOR STRESS PERIOD    1   TIME STEP  187
    PRINT BUDGET
    SAVE HEAD FOR ALL LAYERS
 SOLVING FOR ZETA FOR LAYER     6 ZONE     2

     496 UPPER PART EQS.       496 LOWER PART EQS.    BAND WIDTH + 1 =    3
 STRESS PERIOD=  1 TIMESTEP=187 LAYER=  6 ZONE=  2 ACTIVE CELLS=  992 NUMBER OF EQUATIONS=     992
 UBUDSV SAVING "      ZETASRF  1" ON UNIT 55 AT TIME STEP187, STRESS PERIOD    1


                      VOLUMETRIC SWI ZONE BUDGET FOR ENTIRE MODEL
                     AT END OF TIME STEP  187 IN STRESS PERIOD   1
                                      ZONE     1
  -----------------------------------------------------------------------------------

        CUMULATIVE VOLUMES      L**3       RATES FOR THIS TIME STEP      L**3/T
        ------------------                 ------------------------

              IN:                                      IN:
              ---                                      ---
             BOUNDARIES =       3.7787E-08            BOUNDARIES =       1.7393E-07
          CONSTANT HEAD =       3.5503E-02         CONSTANT HEAD =           0.1603
            ZONE CHANGE =       1.8605E-03           ZONE CHANGE =       4.0445E-03
       ZONE CHG TIP/TOE =       2.0820E-05      ZONE CHG TIP/TOE =       3.5999E-05
            ZONE MIXING =           0.0000           ZONE MIXING =           0.0000

               TOTAL IN =       3.7385E-02              TOTAL IN =           0.1643

             OUT:                                     OUT:
             ----                                     ----
             BOUNDARIES =       3.7307E-02            BOUNDARIES =           0.1642
          CONSTANT HEAD =           0.0000         CONSTANT HEAD =           0.0000
            ZONE CHANGE =       7.6725E-05           ZONE CHANGE =       1.6758E-04
       ZONE CHG TIP/TOE =       3.9685E-07      ZONE CHG TIP/TOE =       1.1861E-06
            ZONE MIXING =           0.0000           ZONE MIXING =           0.0000

              TOTAL OUT =       3.7384E-02             TOTAL OUT =           0.1643

               IN - OUT =       1.0580E-06              IN - OUT =       1.5125E-05

    PERCENT DISCREPANCY =           0.00     PERCENT DISCREPANCY =           0.01



                      VOLUMETRIC SWI ZONE BUDGET FOR ENTIRE MODEL
                     AT END OF TIME STEP  187 IN STRESS PERIOD   1
                                      ZONE     2
  -----------------------------------------------------------------------------------

        CUMULATIVE VOLUMES      L**3       RATES FOR THIS TIME STEP      L**3/T
        ------------------                 ------------------------

              IN:                                      IN:
              ---                                      ---
             BOUNDARIES =       1.4767E-13            BOUNDARIES =       6.3690E-13
          CONSTANT HEAD =       1.7332E-03         CONSTANT HEAD =       3.8835E-03
            ZONE CHANGE =       7.3000E-05           ZONE CHANGE =       1.4581E-04
       ZONE CHG TIP/TOE =       3.9685E-07      ZONE CHG TIP/TOE =       1.1861E-06
            ZONE MIXING =           0.0000           ZONE MIXING =           0.0000

               TOTAL IN =       1.8066E-03              TOTAL IN =       4.0305E-03

             OUT:                                     OUT:
             ----                                     ----
             BOUNDARIES =       1.4676E-13            BOUNDARIES =       7.0352E-13
          CONSTANT HEAD =           0.0000         CONSTANT HEAD =           0.0000
            ZONE CHANGE =       1.7904E-03           ZONE CHANGE =       4.0309E-03
       ZONE CHG TIP/TOE =       1.7095E-05      ZONE CHG TIP/TOE =       1.4222E-05
            ZONE MIXING =           0.0000           ZONE MIXING =           0.0000

              TOTAL OUT =       1.8075E-03             TOTAL OUT =       4.0451E-03

               IN - OUT =      -9.7137E-07              IN - OUT =      -1.4630E-05

    PERCENT DISCREPANCY =          -0.05     PERCENT DISCREPANCY =          -0.36


 HEAD WILL BE SAVED ON UNIT   51 AT END OF TIME STEP  187, STRESS PERIOD    1
1
  VOLUMETRIC BUDGET FOR ENTIRE MODEL AT END OF TIME STEP  187, STRESS PERIOD   1
  ------------------------------------------------------------------------------

     CUMULATIVE VOLUMES      L**3       RATES FOR THIS TIME STEP      L**3/T
     ------------------                 ------------------------

           IN:                                      IN:
           ---                                      ---
             STORAGE =       6.9958E-05               STORAGE =       1.3278E-05
       CONSTANT HEAD =       3.7237E-02         CONSTANT HEAD =           0.1641
               WELLS =           0.0000                 WELLS =           0.0000
          SWIADDTOCH =           0.0000            SWIADDTOCH =           0.0000

            TOTAL IN =       3.7307E-02              TOTAL IN =           0.1642

          OUT:                                     OUT:
          ----                                     ----
             STORAGE =       9.4672E-10               STORAGE =       7.5979E-09
       CONSTANT HEAD =           0.0000         CONSTANT HEAD =           0.0000
               WELLS =       3.7307E-02                 WELLS =           0.1642
          SWIADDTOCH =       1.6007E-09            SWIADDTOCH =       7.5525E-08

           TOTAL OUT =       3.7307E-02             TOTAL OUT =           0.1642

            IN - OUT =      -1.4901E-08              IN - OUT =       1.4901E-07

 PERCENT DISCREPANCY =          -0.00     PERCENT DISCREPANCY =           0.00






         TIME SUMMARY AT END OF TIME STEP  187 IN STRESS PERIOD    1
                    SECONDS     MINUTES      HOURS       DAYS        YEARS
                    -----------------------------------------------------------
   TIME STEP LENGTH  105.00      1.7500     2.91667E-02 1.21528E-03 3.32726E-06
 STRESS PERIOD TIME  19635.      327.25      5.4542     0.22726     6.22196E-04
         TOTAL TIME  19635.      327.25      5.4542     0.22726     6.22196E-04
1

 SOLVING FOR HEAD 
     2 EXTERNAL ITERATIONS FOR TIME STEP 188 IN STRESS PERIOD    1

 MAXIMUM HEAD CHANGE FOR EACH ITERATION:

     HEAD CHANGE  LAY,ROW,COL      HEAD CHANGE  LAY,ROW,COL  
 ------------------------------------------------------------
    -2.087E-05 (  6,    1, 1000)  -1.785E-07 (  6,    1, 1000)



 OUTPUT CONTROL FOR STRESS PERIOD    1   TIME STEP  188
    PRINT BUDGET
    SAVE HEAD FOR ALL LAYERS
 SOLVING FOR ZETA FOR LAYER     6 ZONE     2

     493 UPPER PART EQS.       496 LOWER PART EQS.    BAND WIDTH + 1 =    4
 STRESS PERIOD=  1 TIMESTEP=188 LAYER=  6 ZONE=  2 ACTIVE CELLS=  989 NUMBER OF EQUATIONS=     989
 UBUDSV SAVING "      ZETASRF  1" ON UNIT 55 AT TIME STEP188, STRESS PERIOD    1


                      VOLUMETRIC SWI ZONE BUDGET FOR ENTIRE MODEL
                     AT END OF TIME STEP  188 IN STRESS PERIOD   1
                                      ZONE     1
  -----------------------------------------------------------------------------------

        CUMULATIVE VOLUMES      L**3       RATES FOR THIS TIME STEP      L**3/T
        ------------------                 ------------------------

              IN:                                      IN:
              ---                                      ---
             BOUNDARIES =       3.7995E-08            BOUNDARIES =       1.7122E-07
          CONSTANT HEAD =       3.5698E-02         CONSTANT HEAD =           0.1603
            ZONE CHANGE =       1.8654E-03           ZONE CHANGE =       4.0182E-03
       ZONE CHG TIP/TOE =       2.0855E-05      ZONE CHG TIP/TOE =       2.9448E-05
            ZONE MIXING =           0.0000           ZONE MIXING =           0.0000

               TOTAL IN =       3.7584E-02              TOTAL IN =           0.1643

             OUT:                                     OUT:
             ----                                     ----
             BOUNDARIES =       3.7506E-02            BOUNDARIES =           0.1642
          CONSTANT HEAD =           0.0000         CONSTANT HEAD =           0.0000
            ZONE CHANGE =       7.6927E-05           ZONE CHANGE =       1.6676E-04
       ZONE CHG TIP/TOE =       4.0050E-07      ZONE CHG TIP/TOE =       3.0022E-06
            ZONE MIXING =           0.0000           ZONE MIXING =           0.0000

              TOTAL OUT =       3.7583E-02             TOTAL OUT =           0.1643

               IN - OUT =       1.0654E-06              IN - OUT =       6.5714E-06

    PERCENT DISCREPANCY =           0.00     PERCENT DISCREPANCY =           0.00



                      VOLUMETRIC SWI ZONE BUDGET FOR ENTIRE MODEL
                     AT END OF TIME STEP  188 IN STRESS PERIOD   1
                                      ZONE     2
  -----------------------------------------------------------------------------------

        CUMULATIVE VOLUMES      L**3       RATES FOR THIS TIME STEP      L**3/T
        ------------------                 ------------------------

              IN:                                      IN:
              ---                                      ---
             BOUNDARIES =       1.4847E-13            BOUNDARIES =       6.6055E-13
          CONSTANT HEAD =       1.7379E-03         CONSTANT HEAD =       3.8583E-03
            ZONE CHANGE =       7.3183E-05           ZONE CHANGE =       1.5050E-04
       ZONE CHG TIP/TOE =       4.0050E-07      ZONE CHG TIP/TOE =       3.0022E-06
            ZONE MIXING =           0.0000           ZONE MIXING =           0.0000

               TOTAL IN =       1.8114E-03              TOTAL IN =       4.0118E-03

             OUT:                                     OUT:
             ----                                     ----
             BOUNDARIES =       1.4750E-13            BOUNDARIES =       6.0990E-13
          CONSTANT HEAD =           0.0000         CONSTANT HEAD =           0.0000
            ZONE CHANGE =       1.7953E-03           ZONE CHANGE =       4.0047E-03
       ZONE CHG TIP/TOE =       1.7111E-05      ZONE CHG TIP/TOE =       1.3181E-05
            ZONE MIXING =           0.0000           ZONE MIXING =           0.0000

              TOTAL OUT =       1.8124E-03             TOTAL OUT =       4.0179E-03

               IN - OUT =      -9.7882E-07              IN - OUT =      -6.0881E-06

    PERCENT DISCREPANCY =          -0.05     PERCENT DISCREPANCY =          -0.15


 HEAD WILL BE SAVED ON UNIT   51 AT END OF TIME STEP  188, STRESS PERIOD    1
1
  VOLUMETRIC BUDGET FOR ENTIRE MODEL AT END OF TIME STEP  188, STRESS PERIOD   1
  ------------------------------------------------------------------------------

     CUMULATIVE VOLUMES      L**3       RATES FOR THIS TIME STEP      L**3/T
     ------------------                 ------------------------

           IN:                                      IN:
           ---                                      ---
             STORAGE =       6.9974E-05               STORAGE =       1.3252E-05
       CONSTANT HEAD =       3.7436E-02         CONSTANT HEAD =           0.1641
               WELLS =           0.0000                 WELLS =           0.0000
          SWIADDTOCH =           0.0000            SWIADDTOCH =           0.0000

            TOTAL IN =       3.7506E-02              TOTAL IN =           0.1642

          OUT:                                     OUT:
          ----                                     ----
             STORAGE =       9.5029E-10               STORAGE =       2.9401E-09
       CONSTANT HEAD =           0.0000         CONSTANT HEAD =           0.0000
               WELLS =       3.7506E-02                 WELLS =           0.1642
          SWIADDTOCH =       1.6007E-09            SWIADDTOCH =           0.0000

           TOTAL OUT =       3.7506E-02             TOTAL OUT =           0.1642

            IN - OUT =      -1.1176E-08              IN - OUT =       1.6391E-07

 PERCENT DISCREPANCY =          -0.00     PERCENT DISCREPANCY =           0.00






         TIME SUMMARY AT END OF TIME STEP  188 IN STRESS PERIOD    1
                    SECONDS     MINUTES      HOURS       DAYS        YEARS
                    -----------------------------------------------------------
   TIME STEP LENGTH  105.00      1.7500     2.91667E-02 1.21528E-03 3.32726E-06
 STRESS PERIOD TIME  19740.      329.00      5.4833     0.22847     6.25524E-04
         TOTAL TIME  19740.      329.00      5.4833     0.22847     6.25524E-04
1

 SOLVING FOR HEAD 
     2 EXTERNAL ITERATIONS FOR TIME STEP 189 IN STRESS PERIOD    1

 MAXIMUM HEAD CHANGE FOR EACH ITERATION:

     HEAD CHANGE  LAY,ROW,COL      HEAD CHANGE  LAY,ROW,COL  
 ------------------------------------------------------------
    -2.096E-05 (  6,    1, 1000)  -1.782E-07 (  6,    1, 1000)



 OUTPUT CONTROL FOR STRESS PERIOD    1   TIME STEP  189
    PRINT BUDGET
    SAVE HEAD FOR ALL LAYERS
 SOLVING FOR ZETA FOR LAYER     6 ZONE     2

     496 UPPER PART EQS.       494 LOWER PART EQS.    BAND WIDTH + 1 =    4
 STRESS PERIOD=  1 TIMESTEP=189 LAYER=  6 ZONE=  2 ACTIVE CELLS=  990 NUMBER OF EQUATIONS=     990
 UBUDSV SAVING "      ZETASRF  1" ON UNIT 55 AT TIME STEP189, STRESS PERIOD    1


                      VOLUMETRIC SWI ZONE BUDGET FOR ENTIRE MODEL
                     AT END OF TIME STEP  189 IN STRESS PERIOD   1
                                      ZONE     1
  -----------------------------------------------------------------------------------

        CUMULATIVE VOLUMES      L**3       RATES FOR THIS TIME STEP      L**3/T
        ------------------                 ------------------------

              IN:                                      IN:
              ---                                      ---
             BOUNDARIES =       3.8197E-08            BOUNDARIES =       1.6600E-07
          CONSTANT HEAD =       3.5893E-02         CONSTANT HEAD =           0.1603
            ZONE CHANGE =       1.8702E-03           ZONE CHANGE =       3.9844E-03
       ZONE CHG TIP/TOE =       2.0887E-05      ZONE CHG TIP/TOE =       2.5988E-05
            ZONE MIXING =           0.0000           ZONE MIXING =           0.0000

               TOTAL IN =       3.7784E-02              TOTAL IN =           0.1643

             OUT:                                     OUT:
             ----                                     ----
             BOUNDARIES =       3.7706E-02            BOUNDARIES =           0.1642
          CONSTANT HEAD =           0.0000         CONSTANT HEAD =           0.0000
            ZONE CHANGE =       7.7118E-05           ZONE CHANGE =       1.5703E-04
       ZONE CHG TIP/TOE =       4.0168E-07      ZONE CHG TIP/TOE =       9.7719E-07
            ZONE MIXING =           0.0000           ZONE MIXING =           0.0000

              TOTAL OUT =       3.7783E-02             TOTAL OUT =           0.1643

               IN - OUT =       1.0766E-06              IN - OUT =       5.9009E-06

    PERCENT DISCREPANCY =           0.00     PERCENT DISCREPANCY =           0.00



                      VOLUMETRIC SWI ZONE BUDGET FOR ENTIRE MODEL
                     AT END OF TIME STEP  189 IN STRESS PERIOD   1
                                      ZONE     2
  -----------------------------------------------------------------------------------

        CUMULATIVE VOLUMES      L**3       RATES FOR THIS TIME STEP      L**3/T
        ------------------                 ------------------------

              IN:                                      IN:
              ---                                      ---
             BOUNDARIES =       1.4928E-13            BOUNDARIES =       6.6652E-13
          CONSTANT HEAD =       1.7425E-03         CONSTANT HEAD =       3.8335E-03
            ZONE CHANGE =       7.3356E-05           ZONE CHANGE =       1.4250E-04
       ZONE CHG TIP/TOE =       4.0168E-07      ZONE CHG TIP/TOE =       9.7719E-07
            ZONE MIXING =           0.0000           ZONE MIXING =           0.0000

               TOTAL IN =       1.8163E-03              TOTAL IN =       3.9769E-03

             OUT:                                     OUT:
             ----                                     ----
             BOUNDARIES =       1.4823E-13            BOUNDARIES =       5.9986E-13
          CONSTANT HEAD =           0.0000         CONSTANT HEAD =           0.0000
            ZONE CHANGE =       1.8001E-03           ZONE CHANGE =       3.9709E-03
       ZONE CHG TIP/TOE =       1.7125E-05      ZONE CHG TIP/TOE =       1.1461E-05
            ZONE MIXING =           0.0000           ZONE MIXING =           0.0000

              TOTAL OUT =       1.8173E-03             TOTAL OUT =       3.9824E-03

               IN - OUT =      -9.8557E-07              IN - OUT =      -5.4487E-06

    PERCENT DISCREPANCY =          -0.05     PERCENT DISCREPANCY =          -0.14


 HEAD WILL BE SAVED ON UNIT   51 AT END OF TIME STEP  189, STRESS PERIOD    1
1
  VOLUMETRIC BUDGET FOR ENTIRE MODEL AT END OF TIME STEP  189, STRESS PERIOD   1
  ------------------------------------------------------------------------------

     CUMULATIVE VOLUMES      L**3       RATES FOR THIS TIME STEP      L**3/T
     ------------------                 ------------------------

           IN:                                      IN:
           ---                                      ---
             STORAGE =       6.9990E-05               STORAGE =       1.3191E-05
       CONSTANT HEAD =       3.7636E-02         CONSTANT HEAD =           0.1641
               WELLS =           0.0000                 WELLS =           0.0000
          SWIADDTOCH =           0.0000            SWIADDTOCH =           0.0000

            TOTAL IN =       3.7706E-02              TOTAL IN =           0.1642

          OUT:                                     OUT:
          ----                                     ----
             STORAGE =       9.5839E-10               STORAGE =       6.6639E-09
       CONSTANT HEAD =           0.0000         CONSTANT HEAD =           0.0000
               WELLS =       3.7706E-02                 WELLS =           0.1642
          SWIADDTOCH =       1.6007E-09            SWIADDTOCH =           0.0000

           TOTAL OUT =       3.7706E-02             TOTAL OUT =           0.1642

            IN - OUT =      -1.1176E-08              IN - OUT =       1.7881E-07

 PERCENT DISCREPANCY =          -0.00     PERCENT DISCREPANCY =           0.00






         TIME SUMMARY AT END OF TIME STEP  189 IN STRESS PERIOD    1
                    SECONDS     MINUTES      HOURS       DAYS        YEARS
                    -----------------------------------------------------------
   TIME STEP LENGTH  105.00      1.7500     2.91667E-02 1.21528E-03 3.32726E-06
 STRESS PERIOD TIME  19845.      330.75      5.5125     0.22969     6.28851E-04
         TOTAL TIME  19845.      330.75      5.5125     0.22969     6.28851E-04
1

 SOLVING FOR HEAD 
     2 EXTERNAL ITERATIONS FOR TIME STEP 190 IN STRESS PERIOD    1

 MAXIMUM HEAD CHANGE FOR EACH ITERATION:

     HEAD CHANGE  LAY,ROW,COL      HEAD CHANGE  LAY,ROW,COL  
 ------------------------------------------------------------
    -2.104E-05 (  6,    1, 1000)  -1.776E-07 (  6,    1, 1000)



 OUTPUT CONTROL FOR STRESS PERIOD    1   TIME STEP  190
    PRINT BUDGET
    SAVE HEAD FOR ALL LAYERS
 SOLVING FOR ZETA FOR LAYER     6 ZONE     2

     495 UPPER PART EQS.       496 LOWER PART EQS.    BAND WIDTH + 1 =    3
 STRESS PERIOD=  1 TIMESTEP=190 LAYER=  6 ZONE=  2 ACTIVE CELLS=  991 NUMBER OF EQUATIONS=     991
 UBUDSV SAVING "      ZETASRF  1" ON UNIT 55 AT TIME STEP190, STRESS PERIOD    1


                      VOLUMETRIC SWI ZONE BUDGET FOR ENTIRE MODEL
                     AT END OF TIME STEP  190 IN STRESS PERIOD   1
                                      ZONE     1
  -----------------------------------------------------------------------------------

        CUMULATIVE VOLUMES      L**3       RATES FOR THIS TIME STEP      L**3/T
        ------------------                 ------------------------

              IN:                                      IN:
              ---                                      ---
             BOUNDARIES =       3.8379E-08            BOUNDARIES =       1.4991E-07
          CONSTANT HEAD =       3.6088E-02         CONSTANT HEAD =           0.1603
            ZONE CHANGE =       1.8750E-03           ZONE CHANGE =       3.9470E-03
       ZONE CHG TIP/TOE =       2.0910E-05      ZONE CHG TIP/TOE =       1.9336E-05
            ZONE MIXING =           0.0000           ZONE MIXING =           0.0000

               TOTAL IN =       3.7984E-02              TOTAL IN =           0.1643

             OUT:                                     OUT:
             ----                                     ----
             BOUNDARIES =       3.7905E-02            BOUNDARIES =           0.1642
          CONSTANT HEAD =           0.0000         CONSTANT HEAD =           0.0000
            ZONE CHANGE =       7.7291E-05           ZONE CHANGE =       1.4208E-04
       ZONE CHG TIP/TOE =       4.0342E-07      ZONE CHG TIP/TOE =       1.4273E-06
            ZONE MIXING =           0.0000           ZONE MIXING =           0.0000

              TOTAL OUT =       3.7983E-02             TOTAL OUT =           0.1643

               IN - OUT =       1.0729E-06              IN - OUT =       1.1176E-06

    PERCENT DISCREPANCY =           0.00     PERCENT DISCREPANCY =           0.00



                      VOLUMETRIC SWI ZONE BUDGET FOR ENTIRE MODEL
                     AT END OF TIME STEP  190 IN STRESS PERIOD   1
                                      ZONE     2
  -----------------------------------------------------------------------------------

        CUMULATIVE VOLUMES      L**3       RATES FOR THIS TIME STEP      L**3/T
        ------------------                 ------------------------

              IN:                                      IN:
              ---                                      ---
             BOUNDARIES =       1.5005E-13            BOUNDARIES =       6.3591E-13
          CONSTANT HEAD =       1.7471E-03         CONSTANT HEAD =       3.8087E-03
            ZONE CHANGE =       7.3516E-05           ZONE CHANGE =       1.3092E-04
       ZONE CHG TIP/TOE =       4.0342E-07      ZONE CHG TIP/TOE =       1.4273E-06
            ZONE MIXING =           0.0000           ZONE MIXING =           0.0000

               TOTAL IN =       1.8211E-03              TOTAL IN =       3.9410E-03

             OUT:                                     OUT:
             ----                                     ----
             BOUNDARIES =       1.4901E-13            BOUNDARIES =       6.4554E-13
          CONSTANT HEAD =           0.0000         CONSTANT HEAD =           0.0000
            ZONE CHANGE =       1.8049E-03           ZONE CHANGE =       3.9335E-03
       ZONE CHG TIP/TOE =       1.7135E-05      ZONE CHG TIP/TOE =       8.1744E-06
            ZONE MIXING =           0.0000           ZONE MIXING =           0.0000

              TOTAL OUT =       1.8221E-03             TOTAL OUT =       3.9417E-03

               IN - OUT =      -9.8627E-07              IN - OUT =      -6.6776E-07

    PERCENT DISCREPANCY =          -0.05     PERCENT DISCREPANCY =          -0.02


 HEAD WILL BE SAVED ON UNIT   51 AT END OF TIME STEP  190, STRESS PERIOD    1
1
  VOLUMETRIC BUDGET FOR ENTIRE MODEL AT END OF TIME STEP  190, STRESS PERIOD   1
  ------------------------------------------------------------------------------

     CUMULATIVE VOLUMES      L**3       RATES FOR THIS TIME STEP      L**3/T
     ------------------                 ------------------------

           IN:                                      IN:
           ---                                      ---
             STORAGE =       7.0006E-05               STORAGE =       1.3171E-05
       CONSTANT HEAD =       3.7835E-02         CONSTANT HEAD =           0.1641
               WELLS =           0.0000                 WELLS =           0.0000
          SWIADDTOCH =           0.0000            SWIADDTOCH =           0.0000

            TOTAL IN =       3.7905E-02              TOTAL IN =           0.1642

          OUT:                                     OUT:
          ----                                     ----
             STORAGE =       9.6309E-10               STORAGE =       3.8683E-09
       CONSTANT HEAD =           0.0000         CONSTANT HEAD =           0.0000
               WELLS =       3.7905E-02                 WELLS =           0.1642
          SWIADDTOCH =       1.6007E-09            SWIADDTOCH =           0.0000

           TOTAL OUT =       3.7905E-02             TOTAL OUT =           0.1642

            IN - OUT =      -1.1176E-08              IN - OUT =       2.0862E-07

 PERCENT DISCREPANCY =          -0.00     PERCENT DISCREPANCY =           0.00






         TIME SUMMARY AT END OF TIME STEP  190 IN STRESS PERIOD    1
                    SECONDS     MINUTES      HOURS       DAYS        YEARS
                    -----------------------------------------------------------
   TIME STEP LENGTH  105.00      1.7500     2.91667E-02 1.21528E-03 3.32726E-06
 STRESS PERIOD TIME  19950.      332.50      5.5417     0.23090     6.32178E-04
         TOTAL TIME  19950.      332.50      5.5417     0.23090     6.32178E-04
1

 SOLVING FOR HEAD 
     2 EXTERNAL ITERATIONS FOR TIME STEP 191 IN STRESS PERIOD    1

 MAXIMUM HEAD CHANGE FOR EACH ITERATION:

     HEAD CHANGE  LAY,ROW,COL      HEAD CHANGE  LAY,ROW,COL  
 ------------------------------------------------------------
    -2.114E-05 (  6,    1, 1000)  -1.771E-07 (  6,    1, 1000)



 OUTPUT CONTROL FOR STRESS PERIOD    1   TIME STEP  191
    PRINT BUDGET
    SAVE HEAD FOR ALL LAYERS
 SOLVING FOR ZETA FOR LAYER     6 ZONE     2

     496 UPPER PART EQS.       496 LOWER PART EQS.    BAND WIDTH + 1 =    2
 STRESS PERIOD=  1 TIMESTEP=191 LAYER=  6 ZONE=  2 ACTIVE CELLS=  992 NUMBER OF EQUATIONS=     992
 UBUDSV SAVING "      ZETASRF  1" ON UNIT 55 AT TIME STEP191, STRESS PERIOD    1


                      VOLUMETRIC SWI ZONE BUDGET FOR ENTIRE MODEL
                     AT END OF TIME STEP  191 IN STRESS PERIOD   1
                                      ZONE     1
  -----------------------------------------------------------------------------------

        CUMULATIVE VOLUMES      L**3       RATES FOR THIS TIME STEP      L**3/T
        ------------------                 ------------------------

              IN:                                      IN:
              ---                                      ---
             BOUNDARIES =       3.8583E-08            BOUNDARIES =       1.6797E-07
          CONSTANT HEAD =       3.6283E-02         CONSTANT HEAD =           0.1604
            ZONE CHANGE =       1.8797E-03           ZONE CHANGE =       3.9036E-03
       ZONE CHG TIP/TOE =       2.0930E-05      ZONE CHG TIP/TOE =       1.6028E-05
            ZONE MIXING =           0.0000           ZONE MIXING =           0.0000

               TOTAL IN =       3.8184E-02              TOTAL IN =           0.1643

             OUT:                                     OUT:
             ----                                     ----
             BOUNDARIES =       3.8105E-02            BOUNDARIES =           0.1642
          CONSTANT HEAD =           0.0000         CONSTANT HEAD =           0.0000
            ZONE CHANGE =       7.7442E-05           ZONE CHANGE =       1.2408E-04
       ZONE CHG TIP/TOE =       4.0667E-07      ZONE CHG TIP/TOE =       2.6718E-06
            ZONE MIXING =           0.0000           ZONE MIXING =           0.0000

              TOTAL OUT =       3.8182E-02             TOTAL OUT =           0.1643

               IN - OUT =       1.0692E-06              IN - OUT =      -4.0829E-06

    PERCENT DISCREPANCY =           0.00     PERCENT DISCREPANCY =          -0.00



                      VOLUMETRIC SWI ZONE BUDGET FOR ENTIRE MODEL
                     AT END OF TIME STEP  191 IN STRESS PERIOD   1
                                      ZONE     2
  -----------------------------------------------------------------------------------

        CUMULATIVE VOLUMES      L**3       RATES FOR THIS TIME STEP      L**3/T
        ------------------                 ------------------------

              IN:                                      IN:
              ---                                      ---
             BOUNDARIES =       1.5084E-13            BOUNDARIES =       6.4488E-13
          CONSTANT HEAD =       1.7517E-03         CONSTANT HEAD =       3.7841E-03
            ZONE CHANGE =       7.3658E-05           ZONE CHANGE =       1.1721E-04
       ZONE CHG TIP/TOE =       4.0667E-07      ZONE CHG TIP/TOE =       2.6718E-06
            ZONE MIXING =           0.0000           ZONE MIXING =           0.0000

               TOTAL IN =       1.8258E-03              TOTAL IN =       3.9040E-03

             OUT:                                     OUT:
             ----                                     ----
             BOUNDARIES =       1.4983E-13            BOUNDARIES =       6.7717E-13
          CONSTANT HEAD =           0.0000         CONSTANT HEAD =           0.0000
            ZONE CHANGE =       1.8096E-03           ZONE CHANGE =       3.8903E-03
       ZONE CHG TIP/TOE =       1.7146E-05      ZONE CHG TIP/TOE =       9.1593E-06
            ZONE MIXING =           0.0000           ZONE MIXING =           0.0000

              TOTAL OUT =       1.8268E-03             TOTAL OUT =       3.8994E-03

               IN - OUT =      -9.8068E-07              IN - OUT =       4.5730E-06

    PERCENT DISCREPANCY =          -0.05     PERCENT DISCREPANCY =           0.12


 HEAD WILL BE SAVED ON UNIT   51 AT END OF TIME STEP  191, STRESS PERIOD    1
1
  VOLUMETRIC BUDGET FOR ENTIRE MODEL AT END OF TIME STEP  191, STRESS PERIOD   1
  ------------------------------------------------------------------------------

     CUMULATIVE VOLUMES      L**3       RATES FOR THIS TIME STEP      L**3/T
     ------------------                 ------------------------

           IN:                                      IN:
           ---                                      ---
             STORAGE =       7.0022E-05               STORAGE =       1.3076E-05
       CONSTANT HEAD =       3.8035E-02         CONSTANT HEAD =           0.1641
               WELLS =           0.0000                 WELLS =           0.0000
          SWIADDTOCH =           0.0000            SWIADDTOCH =           0.0000

            TOTAL IN =       3.8105E-02              TOTAL IN =           0.1642

          OUT:                                     OUT:
          ----                                     ----
             STORAGE =       9.7006E-10               STORAGE =       5.7296E-09
       CONSTANT HEAD =           0.0000         CONSTANT HEAD =           0.0000
               WELLS =       3.8105E-02                 WELLS =           0.1642
          SWIADDTOCH =       1.6937E-09            SWIADDTOCH =       7.6497E-08

           TOTAL OUT =       3.8105E-02             TOTAL OUT =           0.1642

            IN - OUT =      -1.1176E-08              IN - OUT =       1.7881E-07

 PERCENT DISCREPANCY =          -0.00     PERCENT DISCREPANCY =           0.00






         TIME SUMMARY AT END OF TIME STEP  191 IN STRESS PERIOD    1
                    SECONDS     MINUTES      HOURS       DAYS        YEARS
                    -----------------------------------------------------------
   TIME STEP LENGTH  105.00      1.7500     2.91667E-02 1.21528E-03 3.32726E-06
 STRESS PERIOD TIME  20055.      334.25      5.5708     0.23212     6.35505E-04
         TOTAL TIME  20055.      334.25      5.5708     0.23212     6.35505E-04
1

 SOLVING FOR HEAD 
     2 EXTERNAL ITERATIONS FOR TIME STEP 192 IN STRESS PERIOD    1

 MAXIMUM HEAD CHANGE FOR EACH ITERATION:

     HEAD CHANGE  LAY,ROW,COL      HEAD CHANGE  LAY,ROW,COL  
 ------------------------------------------------------------
    -2.124E-05 (  6,    1, 1000)  -1.767E-07 (  6,    1, 1000)



 OUTPUT CONTROL FOR STRESS PERIOD    1   TIME STEP  192
    PRINT BUDGET
    SAVE HEAD FOR ALL LAYERS
 SOLVING FOR ZETA FOR LAYER     6 ZONE     2

     495 UPPER PART EQS.       497 LOWER PART EQS.    BAND WIDTH + 1 =    3
 STRESS PERIOD=  1 TIMESTEP=192 LAYER=  6 ZONE=  2 ACTIVE CELLS=  992 NUMBER OF EQUATIONS=     992
 UBUDSV SAVING "      ZETASRF  1" ON UNIT 55 AT TIME STEP192, STRESS PERIOD    1


                      VOLUMETRIC SWI ZONE BUDGET FOR ENTIRE MODEL
                     AT END OF TIME STEP  192 IN STRESS PERIOD   1
                                      ZONE     1
  -----------------------------------------------------------------------------------

        CUMULATIVE VOLUMES      L**3       RATES FOR THIS TIME STEP      L**3/T
        ------------------                 ------------------------

              IN:                                      IN:
              ---                                      ---
             BOUNDARIES =       3.8782E-08            BOUNDARIES =       1.6374E-07
          CONSTANT HEAD =       3.6478E-02         CONSTANT HEAD =           0.1604
            ZONE CHANGE =       1.8844E-03           ZONE CHANGE =       3.8722E-03
       ZONE CHG TIP/TOE =       2.0939E-05      ZONE CHG TIP/TOE =       7.7969E-06
            ZONE MIXING =           0.0000           ZONE MIXING =           0.0000

               TOTAL IN =       3.8383E-02              TOTAL IN =           0.1643

             OUT:                                     OUT:
             ----                                     ----
             BOUNDARIES =       3.8304E-02            BOUNDARIES =           0.1642
          CONSTANT HEAD =           0.0000         CONSTANT HEAD =           0.0000
            ZONE CHANGE =       7.7585E-05           ZONE CHANGE =       1.1771E-04
       ZONE CHG TIP/TOE =       4.0846E-07      ZONE CHG TIP/TOE =       1.4751E-06
            ZONE MIXING =           0.0000           ZONE MIXING =           0.0000

              TOTAL OUT =       3.8382E-02             TOTAL OUT =           0.1643

               IN - OUT =       1.0543E-06              IN - OUT =      -1.1787E-05

    PERCENT DISCREPANCY =           0.00     PERCENT DISCREPANCY =          -0.01



                      VOLUMETRIC SWI ZONE BUDGET FOR ENTIRE MODEL
                     AT END OF TIME STEP  192 IN STRESS PERIOD   1
                                      ZONE     2
  -----------------------------------------------------------------------------------

        CUMULATIVE VOLUMES      L**3       RATES FOR THIS TIME STEP      L**3/T
        ------------------                 ------------------------

              IN:                                      IN:
              ---                                      ---
             BOUNDARIES =       1.5162E-13            BOUNDARIES =       6.4162E-13
          CONSTANT HEAD =       1.7563E-03         CONSTANT HEAD =       3.7598E-03
            ZONE CHANGE =       7.3795E-05           ZONE CHANGE =       1.1265E-04
       ZONE CHG TIP/TOE =       4.0846E-07      ZONE CHG TIP/TOE =       1.4751E-06
            ZONE MIXING =           0.0000           ZONE MIXING =           0.0000

               TOTAL IN =       1.8305E-03              TOTAL IN =       3.8739E-03

             OUT:                                     OUT:
             ----                                     ----
             BOUNDARIES =       1.5058E-13            BOUNDARIES =       6.1544E-13
          CONSTANT HEAD =           0.0000         CONSTANT HEAD =           0.0000
            ZONE CHANGE =       1.8143E-03           ZONE CHANGE =       3.8589E-03
       ZONE CHG TIP/TOE =       1.7150E-05      ZONE CHG TIP/TOE =       2.7368E-06
            ZONE MIXING =           0.0000           ZONE MIXING =           0.0000

              TOTAL OUT =       1.8315E-03             TOTAL OUT =       3.8617E-03

               IN - OUT =      -9.6578E-07              IN - OUT =       1.2250E-05

    PERCENT DISCREPANCY =          -0.05     PERCENT DISCREPANCY =           0.32


 HEAD WILL BE SAVED ON UNIT   51 AT END OF TIME STEP  192, STRESS PERIOD    1
1
  VOLUMETRIC BUDGET FOR ENTIRE MODEL AT END OF TIME STEP  192, STRESS PERIOD   1
  ------------------------------------------------------------------------------

     CUMULATIVE VOLUMES      L**3       RATES FOR THIS TIME STEP      L**3/T
     ------------------                 ------------------------

           IN:                                      IN:
           ---                                      ---
             STORAGE =       7.0038E-05               STORAGE =       1.3040E-05
       CONSTANT HEAD =       3.8234E-02         CONSTANT HEAD =           0.1641
               WELLS =           0.0000                 WELLS =           0.0000
          SWIADDTOCH =           0.0000            SWIADDTOCH =           0.0000

            TOTAL IN =       3.8304E-02              TOTAL IN =           0.1642

          OUT:                                     OUT:
          ----                                     ----
             STORAGE =       9.7815E-10               STORAGE =       6.6594E-09
       CONSTANT HEAD =           0.0000         CONSTANT HEAD =           0.0000
               WELLS =       3.8304E-02                 WELLS =           0.1642
          SWIADDTOCH =       1.6937E-09            SWIADDTOCH =           0.0000

           TOTAL OUT =       3.8304E-02             TOTAL OUT =           0.1642

            IN - OUT =      -7.4506E-09              IN - OUT =       1.9372E-07

 PERCENT DISCREPANCY =          -0.00     PERCENT DISCREPANCY =           0.00






         TIME SUMMARY AT END OF TIME STEP  192 IN STRESS PERIOD    1
                    SECONDS     MINUTES      HOURS       DAYS        YEARS
                    -----------------------------------------------------------
   TIME STEP LENGTH  105.00      1.7500     2.91667E-02 1.21528E-03 3.32726E-06
 STRESS PERIOD TIME  20160.      336.00      5.6000     0.23333     6.38833E-04
         TOTAL TIME  20160.      336.00      5.6000     0.23333     6.38833E-04
1

 SOLVING FOR HEAD 
     2 EXTERNAL ITERATIONS FOR TIME STEP 193 IN STRESS PERIOD    1

 MAXIMUM HEAD CHANGE FOR EACH ITERATION:

     HEAD CHANGE  LAY,ROW,COL      HEAD CHANGE  LAY,ROW,COL  
 ------------------------------------------------------------
    -2.132E-05 (  6,    1, 1000)  -1.760E-07 (  6,    1, 1000)



 OUTPUT CONTROL FOR STRESS PERIOD    1   TIME STEP  193
    PRINT BUDGET
    SAVE HEAD FOR ALL LAYERS
 SOLVING FOR ZETA FOR LAYER     6 ZONE     2

     497 UPPER PART EQS.       496 LOWER PART EQS.    BAND WIDTH + 1 =    4
 STRESS PERIOD=  1 TIMESTEP=193 LAYER=  6 ZONE=  2 ACTIVE CELLS=  993 NUMBER OF EQUATIONS=     993
 UBUDSV SAVING "      ZETASRF  1" ON UNIT 55 AT TIME STEP193, STRESS PERIOD    1


                      VOLUMETRIC SWI ZONE BUDGET FOR ENTIRE MODEL
                     AT END OF TIME STEP  193 IN STRESS PERIOD   1
                                      ZONE     1
  -----------------------------------------------------------------------------------

        CUMULATIVE VOLUMES      L**3       RATES FOR THIS TIME STEP      L**3/T
        ------------------                 ------------------------

              IN:                                      IN:
              ---                                      ---
             BOUNDARIES =       3.8984E-08            BOUNDARIES =       1.6623E-07
          CONSTANT HEAD =       3.6673E-02         CONSTANT HEAD =           0.1604
            ZONE CHANGE =       1.8891E-03           ZONE CHANGE =       3.8152E-03
       ZONE CHG TIP/TOE =       2.0944E-05      ZONE CHG TIP/TOE =       3.9572E-06
            ZONE MIXING =           0.0000           ZONE MIXING =           0.0000

               TOTAL IN =       3.8583E-02              TOTAL IN =           0.1642

             OUT:                                     OUT:
             ----                                     ----
             BOUNDARIES =       3.8504E-02            BOUNDARIES =           0.1642
          CONSTANT HEAD =           0.0000         CONSTANT HEAD =           0.0000
            ZONE CHANGE =       7.7674E-05           ZONE CHANGE =       7.3162E-05
       ZONE CHG TIP/TOE =       4.0958E-07      ZONE CHG TIP/TOE =       9.2436E-07
            ZONE MIXING =           0.0000           ZONE MIXING =           0.0000

              TOTAL OUT =       3.8582E-02             TOTAL OUT =           0.1642

               IN - OUT =       1.0505E-06              IN - OUT =      -3.3677E-06

    PERCENT DISCREPANCY =           0.00     PERCENT DISCREPANCY =          -0.00



                      VOLUMETRIC SWI ZONE BUDGET FOR ENTIRE MODEL
                     AT END OF TIME STEP  193 IN STRESS PERIOD   1
                                      ZONE     2
  -----------------------------------------------------------------------------------

        CUMULATIVE VOLUMES      L**3       RATES FOR THIS TIME STEP      L**3/T
        ------------------                 ------------------------

              IN:                                      IN:
              ---                                      ---
             BOUNDARIES =       1.5244E-13            BOUNDARIES =       6.7950E-13
          CONSTANT HEAD =       1.7609E-03         CONSTANT HEAD =       3.7356E-03
            ZONE CHANGE =       7.3879E-05           ZONE CHANGE =       6.9502E-05
       ZONE CHG TIP/TOE =       4.0958E-07      ZONE CHG TIP/TOE =       9.2436E-07
            ZONE MIXING =           0.0000           ZONE MIXING =           0.0000

               TOTAL IN =       1.8351E-03              TOTAL IN =       3.8061E-03

             OUT:                                     OUT:
             ----                                     ----
             BOUNDARIES =       1.5133E-13            BOUNDARIES =       6.1647E-13
          CONSTANT HEAD =           0.0000         CONSTANT HEAD =           0.0000
            ZONE CHANGE =       1.8190E-03           ZONE CHANGE =       3.8019E-03
       ZONE CHG TIP/TOE =       1.7150E-05      ZONE CHG TIP/TOE =       2.9746E-07
            ZONE MIXING =           0.0000           ZONE MIXING =           0.0000

              TOTAL OUT =       1.8361E-03             TOTAL OUT =       3.8022E-03

               IN - OUT =      -9.6112E-07              IN - OUT =       3.8645E-06

    PERCENT DISCREPANCY =          -0.05     PERCENT DISCREPANCY =           0.10


 HEAD WILL BE SAVED ON UNIT   51 AT END OF TIME STEP  193, STRESS PERIOD    1
1
  VOLUMETRIC BUDGET FOR ENTIRE MODEL AT END OF TIME STEP  193, STRESS PERIOD   1
  ------------------------------------------------------------------------------

     CUMULATIVE VOLUMES      L**3       RATES FOR THIS TIME STEP      L**3/T
     ------------------                 ------------------------

           IN:                                      IN:
           ---                                      ---
             STORAGE =       7.0054E-05               STORAGE =       1.2969E-05
       CONSTANT HEAD =       3.8434E-02         CONSTANT HEAD =           0.1641
               WELLS =           0.0000                 WELLS =           0.0000
          SWIADDTOCH =           0.0000            SWIADDTOCH =           0.0000

            TOTAL IN =       3.8504E-02              TOTAL IN =           0.1642

          OUT:                                     OUT:
          ----                                     ----
             STORAGE =       9.8398E-10               STORAGE =       4.7956E-09
       CONSTANT HEAD =           0.0000         CONSTANT HEAD =           0.0000
               WELLS =       3.8504E-02                 WELLS =           0.1642
          SWIADDTOCH =       1.6937E-09            SWIADDTOCH =           0.0000

           TOTAL OUT =       3.8504E-02             TOTAL OUT =           0.1642

            IN - OUT =      -7.4506E-09              IN - OUT =       1.7881E-07

 PERCENT DISCREPANCY =          -0.00     PERCENT DISCREPANCY =           0.00






         TIME SUMMARY AT END OF TIME STEP  193 IN STRESS PERIOD    1
                    SECONDS     MINUTES      HOURS       DAYS        YEARS
                    -----------------------------------------------------------
   TIME STEP LENGTH  105.00      1.7500     2.91667E-02 1.21528E-03 3.32726E-06
 STRESS PERIOD TIME  20265.      337.75      5.6292     0.23455     6.42160E-04
         TOTAL TIME  20265.      337.75      5.6292     0.23455     6.42160E-04
1

 SOLVING FOR HEAD 
     2 EXTERNAL ITERATIONS FOR TIME STEP 194 IN STRESS PERIOD    1

 MAXIMUM HEAD CHANGE FOR EACH ITERATION:

     HEAD CHANGE  LAY,ROW,COL      HEAD CHANGE  LAY,ROW,COL  
 ------------------------------------------------------------
    -2.144E-05 (  6,    1, 1000)  -1.756E-07 (  6,    1, 1000)



 OUTPUT CONTROL FOR STRESS PERIOD    1   TIME STEP  194
    PRINT BUDGET
    SAVE HEAD FOR ALL LAYERS
 SOLVING FOR ZETA FOR LAYER     6 ZONE     2

     497 UPPER PART EQS.       499 LOWER PART EQS.    BAND WIDTH + 1 =    3
 STRESS PERIOD=  1 TIMESTEP=194 LAYER=  6 ZONE=  2 ACTIVE CELLS=  996 NUMBER OF EQUATIONS=     996
 UBUDSV SAVING "      ZETASRF  1" ON UNIT 55 AT TIME STEP194, STRESS PERIOD    1


                      VOLUMETRIC SWI ZONE BUDGET FOR ENTIRE MODEL
                     AT END OF TIME STEP  194 IN STRESS PERIOD   1
                                      ZONE     1
  -----------------------------------------------------------------------------------

        CUMULATIVE VOLUMES      L**3       RATES FOR THIS TIME STEP      L**3/T
        ------------------                 ------------------------

              IN:                                      IN:
              ---                                      ---
             BOUNDARIES =       3.9192E-08            BOUNDARIES =       1.7099E-07
          CONSTANT HEAD =       3.6868E-02         CONSTANT HEAD =           0.1604
            ZONE CHANGE =       1.8938E-03           ZONE CHANGE =       3.8520E-03
       ZONE CHG TIP/TOE =       2.0953E-05      ZONE CHG TIP/TOE =       6.8999E-06
            ZONE MIXING =           0.0000           ZONE MIXING =           0.0000

               TOTAL IN =       3.8782E-02              TOTAL IN =           0.1643

             OUT:                                     OUT:
             ----                                     ----
             BOUNDARIES =       3.8703E-02            BOUNDARIES =           0.1642
          CONSTANT HEAD =           0.0000         CONSTANT HEAD =           0.0000
            ZONE CHANGE =       7.7832E-05           ZONE CHANGE =       1.2997E-04
       ZONE CHG TIP/TOE =       4.1146E-07      ZONE CHG TIP/TOE =       1.5453E-06
            ZONE MIXING =           0.0000           ZONE MIXING =           0.0000

              TOTAL OUT =       3.8781E-02             TOTAL OUT =           0.1643

               IN - OUT =       1.0543E-06              IN - OUT =       3.3230E-06

    PERCENT DISCREPANCY =           0.00     PERCENT DISCREPANCY =           0.00



                      VOLUMETRIC SWI ZONE BUDGET FOR ENTIRE MODEL
                     AT END OF TIME STEP  194 IN STRESS PERIOD   1
                                      ZONE     2
  -----------------------------------------------------------------------------------

        CUMULATIVE VOLUMES      L**3       RATES FOR THIS TIME STEP      L**3/T
        ------------------                 ------------------------

              IN:                                      IN:
              ---                                      ---
             BOUNDARIES =       1.5327E-13            BOUNDARIES =       6.8325E-13
          CONSTANT HEAD =       1.7654E-03         CONSTANT HEAD =       3.7113E-03
            ZONE CHANGE =       7.4029E-05           ZONE CHANGE =       1.2346E-04
       ZONE CHG TIP/TOE =       4.1146E-07      ZONE CHG TIP/TOE =       1.5453E-06
            ZONE MIXING =           0.0000           ZONE MIXING =           0.0000

               TOTAL IN =       1.8398E-03              TOTAL IN =       3.8363E-03

             OUT:                                     OUT:
             ----                                     ----
             BOUNDARIES =       1.5210E-13            BOUNDARIES =       6.3516E-13
          CONSTANT HEAD =           0.0000         CONSTANT HEAD =           0.0000
            ZONE CHANGE =       1.8236E-03           ZONE CHANGE =       3.8388E-03
       ZONE CHG TIP/TOE =       1.7150E-05      ZONE CHG TIP/TOE =       3.9329E-07
            ZONE MIXING =           0.0000           ZONE MIXING =           0.0000

              TOTAL OUT =       1.8408E-03             TOTAL OUT =       3.8392E-03

               IN - OUT =      -9.6473E-07              IN - OUT =      -2.8424E-06

    PERCENT DISCREPANCY =          -0.05     PERCENT DISCREPANCY =          -0.07


 HEAD WILL BE SAVED ON UNIT   51 AT END OF TIME STEP  194, STRESS PERIOD    1
1
  VOLUMETRIC BUDGET FOR ENTIRE MODEL AT END OF TIME STEP  194, STRESS PERIOD   1
  ------------------------------------------------------------------------------

     CUMULATIVE VOLUMES      L**3       RATES FOR THIS TIME STEP      L**3/T
     ------------------                 ------------------------

           IN:                                      IN:
           ---                                      ---
             STORAGE =       7.0069E-05               STORAGE =       1.2917E-05
       CONSTANT HEAD =       3.8633E-02         CONSTANT HEAD =           0.1641
               WELLS =           0.0000                 WELLS =           0.0000
          SWIADDTOCH =           0.0000            SWIADDTOCH =           0.0000

            TOTAL IN =       3.8703E-02              TOTAL IN =           0.1642

          OUT:                                     OUT:
          ----                                     ----
             STORAGE =       9.9320E-10               STORAGE =       7.5879E-09
       CONSTANT HEAD =           0.0000         CONSTANT HEAD =           0.0000
               WELLS =       3.8703E-02                 WELLS =           0.1642
          SWIADDTOCH =       1.6937E-09            SWIADDTOCH =           0.0000

           TOTAL OUT =       3.8703E-02             TOTAL OUT =           0.1642

            IN - OUT =      -7.4506E-09              IN - OUT =       1.7881E-07

 PERCENT DISCREPANCY =          -0.00     PERCENT DISCREPANCY =           0.00






         TIME SUMMARY AT END OF TIME STEP  194 IN STRESS PERIOD    1
                    SECONDS     MINUTES      HOURS       DAYS        YEARS
                    -----------------------------------------------------------
   TIME STEP LENGTH  105.00      1.7500     2.91667E-02 1.21528E-03 3.32726E-06
 STRESS PERIOD TIME  20370.      339.50      5.6583     0.23576     6.45487E-04
         TOTAL TIME  20370.      339.50      5.6583     0.23576     6.45487E-04
1

 SOLVING FOR HEAD 
     2 EXTERNAL ITERATIONS FOR TIME STEP 195 IN STRESS PERIOD    1

 MAXIMUM HEAD CHANGE FOR EACH ITERATION:

     HEAD CHANGE  LAY,ROW,COL      HEAD CHANGE  LAY,ROW,COL  
 ------------------------------------------------------------
    -2.156E-05 (  6,    1, 1000)  -1.754E-07 (  6,    1, 1000)



 OUTPUT CONTROL FOR STRESS PERIOD    1   TIME STEP  195
    PRINT BUDGET
    SAVE HEAD FOR ALL LAYERS
 SOLVING FOR ZETA FOR LAYER     6 ZONE     2

     496 UPPER PART EQS.       496 LOWER PART EQS.    BAND WIDTH + 1 =    2
 STRESS PERIOD=  1 TIMESTEP=195 LAYER=  6 ZONE=  2 ACTIVE CELLS=  992 NUMBER OF EQUATIONS=     992
 UBUDSV SAVING "      ZETASRF  1" ON UNIT 55 AT TIME STEP195, STRESS PERIOD    1


                      VOLUMETRIC SWI ZONE BUDGET FOR ENTIRE MODEL
                     AT END OF TIME STEP  195 IN STRESS PERIOD   1
                                      ZONE     1
  -----------------------------------------------------------------------------------

        CUMULATIVE VOLUMES      L**3       RATES FOR THIS TIME STEP      L**3/T
        ------------------                 ------------------------

              IN:                                      IN:
              ---                                      ---
             BOUNDARIES =       3.9396E-08            BOUNDARIES =       1.6756E-07
          CONSTANT HEAD =       3.7063E-02         CONSTANT HEAD =           0.1605
            ZONE CHANGE =       1.8986E-03           ZONE CHANGE =       3.9544E-03
       ZONE CHG TIP/TOE =       2.0973E-05      ZONE CHG TIP/TOE =       1.6662E-05
            ZONE MIXING =           0.0000           ZONE MIXING =           0.0000

               TOTAL IN =       3.8982E-02              TOTAL IN =           0.1644

             OUT:                                     OUT:
             ----                                     ----
             BOUNDARIES =       3.8903E-02            BOUNDARIES =           0.1642
          CONSTANT HEAD =           0.0000         CONSTANT HEAD =           0.0000
            ZONE CHANGE =       7.8149E-05           ZONE CHANGE =       2.6145E-04
       ZONE CHG TIP/TOE =       4.1228E-07      ZONE CHG TIP/TOE =       6.7548E-07
            ZONE MIXING =           0.0000           ZONE MIXING =           0.0000

              TOTAL OUT =       3.8981E-02             TOTAL OUT =           0.1644

               IN - OUT =       1.0654E-06              IN - OUT =       9.1046E-06

    PERCENT DISCREPANCY =           0.00     PERCENT DISCREPANCY =           0.01



                      VOLUMETRIC SWI ZONE BUDGET FOR ENTIRE MODEL
                     AT END OF TIME STEP  195 IN STRESS PERIOD   1
                                      ZONE     2
  -----------------------------------------------------------------------------------

        CUMULATIVE VOLUMES      L**3       RATES FOR THIS TIME STEP      L**3/T
        ------------------                 ------------------------

              IN:                                      IN:
              ---                                      ---
             BOUNDARIES =       1.5410E-13            BOUNDARIES =       6.7850E-13
          CONSTANT HEAD =       1.7698E-03         CONSTANT HEAD =       3.6871E-03
            ZONE CHANGE =       7.4329E-05           ZONE CHANGE =       2.4685E-04
       ZONE CHG TIP/TOE =       4.1228E-07      ZONE CHG TIP/TOE =       6.7548E-07
            ZONE MIXING =           0.0000           ZONE MIXING =           0.0000

               TOTAL IN =       1.8446E-03              TOTAL IN =       3.9346E-03

             OUT:                                     OUT:
             ----                                     ----
             BOUNDARIES =       1.5283E-13            BOUNDARIES =       5.9470E-13
          CONSTANT HEAD =           0.0000         CONSTANT HEAD =           0.0000
            ZONE CHANGE =       1.8284E-03           ZONE CHANGE =       3.9412E-03
       ZONE CHG TIP/TOE =       1.7153E-05      ZONE CHG TIP/TOE =       2.0624E-06
            ZONE MIXING =           0.0000           ZONE MIXING =           0.0000

              TOTAL OUT =       1.8456E-03             TOTAL OUT =       3.9433E-03

               IN - OUT =      -9.7521E-07              IN - OUT =      -8.6129E-06

    PERCENT DISCREPANCY =          -0.05     PERCENT DISCREPANCY =          -0.22


 HEAD WILL BE SAVED ON UNIT   51 AT END OF TIME STEP  195, STRESS PERIOD    1
1
  VOLUMETRIC BUDGET FOR ENTIRE MODEL AT END OF TIME STEP  195, STRESS PERIOD   1
  ------------------------------------------------------------------------------

     CUMULATIVE VOLUMES      L**3       RATES FOR THIS TIME STEP      L**3/T
     ------------------                 ------------------------

           IN:                                      IN:
           ---                                      ---
             STORAGE =       7.0085E-05               STORAGE =       1.2886E-05
       CONSTANT HEAD =       3.8832E-02         CONSTANT HEAD =           0.1641
               WELLS =           0.0000                 WELLS =           0.0000
          SWIADDTOCH =           0.0000            SWIADDTOCH =           0.0000

            TOTAL IN =       3.8903E-02              TOTAL IN =           0.1642

          OUT:                                     OUT:
          ----                                     ----
             STORAGE =       1.0002E-09               STORAGE =       5.7240E-09
       CONSTANT HEAD =           0.0000         CONSTANT HEAD =           0.0000
               WELLS =       3.8903E-02                 WELLS =           0.1642
          SWIADDTOCH =       1.6937E-09            SWIADDTOCH =           0.0000

           TOTAL OUT =       3.8903E-02             TOTAL OUT =           0.1642

            IN - OUT =      -7.4506E-09              IN - OUT =       1.9372E-07

 PERCENT DISCREPANCY =          -0.00     PERCENT DISCREPANCY =           0.00






         TIME SUMMARY AT END OF TIME STEP  195 IN STRESS PERIOD    1
                    SECONDS     MINUTES      HOURS       DAYS        YEARS
                    -----------------------------------------------------------
   TIME STEP LENGTH  105.00      1.7500     2.91667E-02 1.21528E-03 3.32726E-06
 STRESS PERIOD TIME  20475.      341.25      5.6875     0.23698     6.48814E-04
         TOTAL TIME  20475.      341.25      5.6875     0.23698     6.48814E-04
1

 SOLVING FOR HEAD 
     2 EXTERNAL ITERATIONS FOR TIME STEP 196 IN STRESS PERIOD    1

 MAXIMUM HEAD CHANGE FOR EACH ITERATION:

     HEAD CHANGE  LAY,ROW,COL      HEAD CHANGE  LAY,ROW,COL  
 ------------------------------------------------------------
    -2.165E-05 (  6,    1, 1000)  -1.745E-07 (  6,    1, 1000)



 OUTPUT CONTROL FOR STRESS PERIOD    1   TIME STEP  196
    PRINT BUDGET
    SAVE HEAD FOR ALL LAYERS
 SOLVING FOR ZETA FOR LAYER     6 ZONE     2

     496 UPPER PART EQS.       497 LOWER PART EQS.    BAND WIDTH + 1 =    2
 STRESS PERIOD=  1 TIMESTEP=196 LAYER=  6 ZONE=  2 ACTIVE CELLS=  993 NUMBER OF EQUATIONS=     993
 UBUDSV SAVING "      ZETASRF  1" ON UNIT 55 AT TIME STEP196, STRESS PERIOD    1


                      VOLUMETRIC SWI ZONE BUDGET FOR ENTIRE MODEL
                     AT END OF TIME STEP  196 IN STRESS PERIOD   1
                                      ZONE     1
  -----------------------------------------------------------------------------------

        CUMULATIVE VOLUMES      L**3       RATES FOR THIS TIME STEP      L**3/T
        ------------------                 ------------------------

              IN:                                      IN:
              ---                                      ---
             BOUNDARIES =       3.9614E-08            BOUNDARIES =       1.7922E-07
          CONSTANT HEAD =       3.7258E-02         CONSTANT HEAD =           0.1605
            ZONE CHANGE =       1.9033E-03           ZONE CHANGE =       3.8847E-03
       ZONE CHG TIP/TOE =       2.1007E-05      ZONE CHG TIP/TOE =       2.8011E-05
            ZONE MIXING =           0.0000           ZONE MIXING =           0.0000

               TOTAL IN =       3.9182E-02              TOTAL IN =           0.1644

             OUT:                                     OUT:
             ----                                     ----
             BOUNDARIES =       3.9102E-02            BOUNDARIES =           0.1642
          CONSTANT HEAD =           0.0000         CONSTANT HEAD =           0.0000
            ZONE CHANGE =       7.8414E-05           ZONE CHANGE =       2.1781E-04
       ZONE CHG TIP/TOE =       4.1229E-07      ZONE CHG TIP/TOE =       4.7789E-09
            ZONE MIXING =           0.0000           ZONE MIXING =           0.0000

              TOTAL OUT =       3.9181E-02             TOTAL OUT =           0.1644

               IN - OUT =       1.0915E-06              IN - OUT =       1.8954E-05

    PERCENT DISCREPANCY =           0.00     PERCENT DISCREPANCY =           0.01



                      VOLUMETRIC SWI ZONE BUDGET FOR ENTIRE MODEL
                     AT END OF TIME STEP  196 IN STRESS PERIOD   1
                                      ZONE     2
  -----------------------------------------------------------------------------------

        CUMULATIVE VOLUMES      L**3       RATES FOR THIS TIME STEP      L**3/T
        ------------------                 ------------------------

              IN:                                      IN:
              ---                                      ---
             BOUNDARIES =       1.5495E-13            BOUNDARIES =       6.9948E-13
          CONSTANT HEAD =       1.7743E-03         CONSTANT HEAD =       3.6634E-03
            ZONE CHANGE =       7.4568E-05           ZONE CHANGE =       1.9657E-04
       ZONE CHG TIP/TOE =       4.1229E-07      ZONE CHG TIP/TOE =       4.7789E-09
            ZONE MIXING =           0.0000           ZONE MIXING =           0.0000

               TOTAL IN =       1.8493E-03              TOTAL IN =       3.8599E-03

             OUT:                                     OUT:
             ----                                     ----
             BOUNDARIES =       1.5364E-13            BOUNDARIES =       6.6729E-13
          CONSTANT HEAD =           0.0000         CONSTANT HEAD =           0.0000
            ZONE CHANGE =       1.8331E-03           ZONE CHANGE =       3.8716E-03
       ZONE CHG TIP/TOE =       1.7161E-05      ZONE CHG TIP/TOE =       6.7722E-06
            ZONE MIXING =           0.0000           ZONE MIXING =           0.0000

              TOTAL OUT =       1.8503E-03             TOTAL OUT =       3.8784E-03

               IN - OUT =      -9.9768E-07              IN - OUT =      -1.8461E-05

    PERCENT DISCREPANCY =          -0.05     PERCENT DISCREPANCY =          -0.48


 HEAD WILL BE SAVED ON UNIT   51 AT END OF TIME STEP  196, STRESS PERIOD    1
1
  VOLUMETRIC BUDGET FOR ENTIRE MODEL AT END OF TIME STEP  196, STRESS PERIOD   1
  ------------------------------------------------------------------------------

     CUMULATIVE VOLUMES      L**3       RATES FOR THIS TIME STEP      L**3/T
     ------------------                 ------------------------

           IN:                                      IN:
           ---                                      ---
             STORAGE =       7.0100E-05               STORAGE =       1.2801E-05
       CONSTANT HEAD =       3.9032E-02         CONSTANT HEAD =           0.1641
               WELLS =           0.0000                 WELLS =           0.0000
          SWIADDTOCH =           0.0000            SWIADDTOCH =           0.0000

            TOTAL IN =       3.9102E-02              TOTAL IN =           0.1642

          OUT:                                     OUT:
          ----                                     ----
             STORAGE =       1.0071E-09               STORAGE =       5.7244E-09
       CONSTANT HEAD =           0.0000         CONSTANT HEAD =           0.0000
               WELLS =       3.9102E-02                 WELLS =           0.1642
          SWIADDTOCH =       1.6937E-09            SWIADDTOCH =           0.0000

           TOTAL OUT =       3.9102E-02             TOTAL OUT =           0.1642

            IN - OUT =      -7.4506E-09              IN - OUT =       1.7881E-07

 PERCENT DISCREPANCY =          -0.00     PERCENT DISCREPANCY =           0.00






         TIME SUMMARY AT END OF TIME STEP  196 IN STRESS PERIOD    1
                    SECONDS     MINUTES      HOURS       DAYS        YEARS
                    -----------------------------------------------------------
   TIME STEP LENGTH  105.00      1.7500     2.91667E-02 1.21528E-03 3.32726E-06
 STRESS PERIOD TIME  20580.      343.00      5.7167     0.23819     6.52142E-04
         TOTAL TIME  20580.      343.00      5.7167     0.23819     6.52142E-04
1

 SOLVING FOR HEAD 
     2 EXTERNAL ITERATIONS FOR TIME STEP 197 IN STRESS PERIOD    1

 MAXIMUM HEAD CHANGE FOR EACH ITERATION:

     HEAD CHANGE  LAY,ROW,COL      HEAD CHANGE  LAY,ROW,COL  
 ------------------------------------------------------------
    -2.180E-05 (  6,    1, 1000)  -1.750E-07 (  6,    1, 1000)



 OUTPUT CONTROL FOR STRESS PERIOD    1   TIME STEP  197
    PRINT BUDGET
    SAVE HEAD FOR ALL LAYERS
 SOLVING FOR ZETA FOR LAYER     6 ZONE     2

     496 UPPER PART EQS.       497 LOWER PART EQS.    BAND WIDTH + 1 =    3
 STRESS PERIOD=  1 TIMESTEP=197 LAYER=  6 ZONE=  2 ACTIVE CELLS=  993 NUMBER OF EQUATIONS=     993
 UBUDSV SAVING "      ZETASRF  1" ON UNIT 55 AT TIME STEP197, STRESS PERIOD    1


                      VOLUMETRIC SWI ZONE BUDGET FOR ENTIRE MODEL
                     AT END OF TIME STEP  197 IN STRESS PERIOD   1
                                      ZONE     1
  -----------------------------------------------------------------------------------

        CUMULATIVE VOLUMES      L**3       RATES FOR THIS TIME STEP      L**3/T
        ------------------                 ------------------------

              IN:                                      IN:
              ---                                      ---
             BOUNDARIES =       3.9831E-08            BOUNDARIES =       1.7895E-07
          CONSTANT HEAD =       3.7453E-02         CONSTANT HEAD =           0.1605
            ZONE CHANGE =       1.9079E-03           ZONE CHANGE =       3.8087E-03
       ZONE CHG TIP/TOE =       2.1042E-05      ZONE CHG TIP/TOE =       2.9179E-05
            ZONE MIXING =           0.0000           ZONE MIXING =           0.0000

               TOTAL IN =       3.9382E-02              TOTAL IN =           0.1643

             OUT:                                     OUT:
             ----                                     ----
             BOUNDARIES =       3.9302E-02            BOUNDARIES =           0.1642
          CONSTANT HEAD =           0.0000         CONSTANT HEAD =           0.0000
            ZONE CHANGE =       7.8620E-05           ZONE CHANGE =       1.6916E-04
       ZONE CHG TIP/TOE =       4.1229E-07      ZONE CHG TIP/TOE =       4.7780E-09
            ZONE MIXING =           0.0000           ZONE MIXING =           0.0000

              TOTAL OUT =       3.9381E-02             TOTAL OUT =           0.1643

               IN - OUT =       1.1101E-06              IN - OUT =       1.6287E-05

    PERCENT DISCREPANCY =           0.00     PERCENT DISCREPANCY =           0.01



                      VOLUMETRIC SWI ZONE BUDGET FOR ENTIRE MODEL
                     AT END OF TIME STEP  197 IN STRESS PERIOD   1
                                      ZONE     2
  -----------------------------------------------------------------------------------

        CUMULATIVE VOLUMES      L**3       RATES FOR THIS TIME STEP      L**3/T
        ------------------                 ------------------------

              IN:                                      IN:
              ---                                      ---
             BOUNDARIES =       1.5577E-13            BOUNDARIES =       6.7836E-13
          CONSTANT HEAD =       1.7787E-03         CONSTANT HEAD =       3.6399E-03
            ZONE CHANGE =       7.4750E-05           ZONE CHANGE =       1.4913E-04
       ZONE CHG TIP/TOE =       4.1229E-07      ZONE CHG TIP/TOE =       4.7780E-09
            ZONE MIXING =           0.0000           ZONE MIXING =           0.0000

               TOTAL IN =       1.8539E-03              TOTAL IN =       3.7890E-03

             OUT:                                     OUT:
             ----                                     ----
             BOUNDARIES =       1.5441E-13            BOUNDARIES =       6.3382E-13
          CONSTANT HEAD =           0.0000         CONSTANT HEAD =           0.0000
            ZONE CHANGE =       1.8377E-03           ZONE CHANGE =       3.7956E-03
       ZONE CHG TIP/TOE =       1.7172E-05      ZONE CHG TIP/TOE =       9.1424E-06
            ZONE MIXING =           0.0000           ZONE MIXING =           0.0000

              TOTAL OUT =       1.8549E-03             TOTAL OUT =       3.8048E-03

               IN - OUT =      -1.0168E-06              IN - OUT =      -1.5751E-05

    PERCENT DISCREPANCY =          -0.05     PERCENT DISCREPANCY =          -0.41


 HEAD WILL BE SAVED ON UNIT   51 AT END OF TIME STEP  197, STRESS PERIOD    1
1
  VOLUMETRIC BUDGET FOR ENTIRE MODEL AT END OF TIME STEP  197, STRESS PERIOD   1
  ------------------------------------------------------------------------------

     CUMULATIVE VOLUMES      L**3       RATES FOR THIS TIME STEP      L**3/T
     ------------------                 ------------------------

           IN:                                      IN:
           ---                                      ---
             STORAGE =       7.0116E-05               STORAGE =       1.2776E-05
       CONSTANT HEAD =       3.9231E-02         CONSTANT HEAD =           0.1641
               WELLS =           0.0000                 WELLS =           0.0000
          SWIADDTOCH =           0.0000            SWIADDTOCH =           0.0000

            TOTAL IN =       3.9302E-02              TOTAL IN =           0.1642

          OUT:                                     OUT:
          ----                                     ----
             STORAGE =       1.0152E-09               STORAGE =       6.6535E-09
       CONSTANT HEAD =           0.0000         CONSTANT HEAD =           0.0000
               WELLS =       3.9302E-02                 WELLS =           0.1642
          SWIADDTOCH =       1.7886E-09            SWIADDTOCH =       7.8129E-08

           TOTAL OUT =       3.9302E-02             TOTAL OUT =           0.1642

            IN - OUT =      -3.7253E-09              IN - OUT =       1.6391E-07

 PERCENT DISCREPANCY =          -0.00     PERCENT DISCREPANCY =           0.00






         TIME SUMMARY AT END OF TIME STEP  197 IN STRESS PERIOD    1
                    SECONDS     MINUTES      HOURS       DAYS        YEARS
                    -----------------------------------------------------------
   TIME STEP LENGTH  105.00      1.7500     2.91667E-02 1.21528E-03 3.32726E-06
 STRESS PERIOD TIME  20685.      344.75      5.7458     0.23941     6.55469E-04
         TOTAL TIME  20685.      344.75      5.7458     0.23941     6.55469E-04
1

 SOLVING FOR HEAD 
     2 EXTERNAL ITERATIONS FOR TIME STEP 198 IN STRESS PERIOD    1

 MAXIMUM HEAD CHANGE FOR EACH ITERATION:

     HEAD CHANGE  LAY,ROW,COL      HEAD CHANGE  LAY,ROW,COL  
 ------------------------------------------------------------
    -2.188E-05 (  6,    1, 1000)  -1.734E-07 (  6,    1,  999)



 OUTPUT CONTROL FOR STRESS PERIOD    1   TIME STEP  198
    PRINT BUDGET
    SAVE HEAD FOR ALL LAYERS
 SOLVING FOR ZETA FOR LAYER     6 ZONE     2

     496 UPPER PART EQS.       495 LOWER PART EQS.    BAND WIDTH + 1 =    3
 STRESS PERIOD=  1 TIMESTEP=198 LAYER=  6 ZONE=  2 ACTIVE CELLS=  991 NUMBER OF EQUATIONS=     991
 UBUDSV SAVING "      ZETASRF  1" ON UNIT 55 AT TIME STEP198, STRESS PERIOD    1


                      VOLUMETRIC SWI ZONE BUDGET FOR ENTIRE MODEL
                     AT END OF TIME STEP  198 IN STRESS PERIOD   1
                                      ZONE     1
  -----------------------------------------------------------------------------------

        CUMULATIVE VOLUMES      L**3       RATES FOR THIS TIME STEP      L**3/T
        ------------------                 ------------------------

              IN:                                      IN:
              ---                                      ---
             BOUNDARIES =       4.0038E-08            BOUNDARIES =       1.6987E-07
          CONSTANT HEAD =       3.7648E-02         CONSTANT HEAD =           0.1605
            ZONE CHANGE =       1.9125E-03           ZONE CHANGE =       3.7736E-03
       ZONE CHG TIP/TOE =       2.1086E-05      ZONE CHG TIP/TOE =       3.5733E-05
            ZONE MIXING =           0.0000           ZONE MIXING =           0.0000

               TOTAL IN =       3.9581E-02              TOTAL IN =           0.1643

             OUT:                                     OUT:
             ----                                     ----
             BOUNDARIES =       3.9501E-02            BOUNDARIES =           0.1642
          CONSTANT HEAD =           0.0000         CONSTANT HEAD =           0.0000
            ZONE CHANGE =       7.8817E-05           ZONE CHANGE =       1.6258E-04
       ZONE CHG TIP/TOE =       4.1302E-07      ZONE CHG TIP/TOE =       5.9929E-07
            ZONE MIXING =           0.0000           ZONE MIXING =           0.0000

              TOTAL OUT =       3.9580E-02             TOTAL OUT =           0.1643

               IN - OUT =       1.1288E-06              IN - OUT =       1.7300E-05

    PERCENT DISCREPANCY =           0.00     PERCENT DISCREPANCY =           0.01



                      VOLUMETRIC SWI ZONE BUDGET FOR ENTIRE MODEL
                     AT END OF TIME STEP  198 IN STRESS PERIOD   1
                                      ZONE     2
  -----------------------------------------------------------------------------------

        CUMULATIVE VOLUMES      L**3       RATES FOR THIS TIME STEP      L**3/T
        ------------------                 ------------------------

              IN:                                      IN:
              ---                                      ---
             BOUNDARIES =       1.5657E-13            BOUNDARIES =       6.5955E-13
          CONSTANT HEAD =       1.7831E-03         CONSTANT HEAD =       3.6163E-03
            ZONE CHANGE =       7.4920E-05           ZONE CHANGE =       1.4063E-04
       ZONE CHG TIP/TOE =       4.1302E-07      ZONE CHG TIP/TOE =       5.9929E-07
            ZONE MIXING =           0.0000           ZONE MIXING =           0.0000

               TOTAL IN =       1.8585E-03              TOTAL IN =       3.7576E-03

             OUT:                                     OUT:
             ----                                     ----
             BOUNDARIES =       1.5517E-13            BOUNDARIES =       6.2883E-13
          CONSTANT HEAD =           0.0000         CONSTANT HEAD =           0.0000
            ZONE CHANGE =       1.8423E-03           ZONE CHANGE =       3.7606E-03
       ZONE CHG TIP/TOE =       1.7189E-05      ZONE CHG TIP/TOE =       1.3782E-05
            ZONE MIXING =           0.0000           ZONE MIXING =           0.0000

              TOTAL OUT =       1.8595E-03             TOTAL OUT =       3.7744E-03

               IN - OUT =      -1.0371E-06              IN - OUT =      -1.6808E-05

    PERCENT DISCREPANCY =          -0.06     PERCENT DISCREPANCY =          -0.45


 HEAD WILL BE SAVED ON UNIT   51 AT END OF TIME STEP  198, STRESS PERIOD    1
1
  VOLUMETRIC BUDGET FOR ENTIRE MODEL AT END OF TIME STEP  198, STRESS PERIOD   1
  ------------------------------------------------------------------------------

     CUMULATIVE VOLUMES      L**3       RATES FOR THIS TIME STEP      L**3/T
     ------------------                 ------------------------

           IN:                                      IN:
           ---                                      ---
             STORAGE =       7.0131E-05               STORAGE =       1.2713E-05
       CONSTANT HEAD =       3.9431E-02         CONSTANT HEAD =           0.1641
               WELLS =           0.0000                 WELLS =           0.0000
          SWIADDTOCH =           0.0000            SWIADDTOCH =           0.0000

            TOTAL IN =       3.9501E-02              TOTAL IN =           0.1642

          OUT:                                     OUT:
          ----                                     ----
             STORAGE =       1.0233E-09               STORAGE =       6.6537E-09
       CONSTANT HEAD =           0.0000         CONSTANT HEAD =           0.0000
               WELLS =       3.9501E-02                 WELLS =           0.1642
          SWIADDTOCH =       1.7886E-09            SWIADDTOCH =           0.0000

           TOTAL OUT =       3.9501E-02             TOTAL OUT =           0.1642

            IN - OUT =      -3.7253E-09              IN - OUT =       1.9372E-07

 PERCENT DISCREPANCY =          -0.00     PERCENT DISCREPANCY =           0.00






         TIME SUMMARY AT END OF TIME STEP  198 IN STRESS PERIOD    1
                    SECONDS     MINUTES      HOURS       DAYS        YEARS
                    -----------------------------------------------------------
   TIME STEP LENGTH  105.00      1.7500     2.91667E-02 1.21528E-03 3.32726E-06
 STRESS PERIOD TIME  20790.      346.50      5.7750     0.24063     6.58796E-04
         TOTAL TIME  20790.      346.50      5.7750     0.24063     6.58796E-04
1

 SOLVING FOR HEAD 
     2 EXTERNAL ITERATIONS FOR TIME STEP 199 IN STRESS PERIOD    1

 MAXIMUM HEAD CHANGE FOR EACH ITERATION:

     HEAD CHANGE  LAY,ROW,COL      HEAD CHANGE  LAY,ROW,COL  
 ------------------------------------------------------------
    -2.203E-05 (  6,    1, 1000)  -1.735E-07 (  6,    1,  999)



 OUTPUT CONTROL FOR STRESS PERIOD    1   TIME STEP  199
    PRINT BUDGET
    SAVE HEAD FOR ALL LAYERS
 SOLVING FOR ZETA FOR LAYER     6 ZONE     2

     495 UPPER PART EQS.       495 LOWER PART EQS.    BAND WIDTH + 1 =    2
 STRESS PERIOD=  1 TIMESTEP=199 LAYER=  6 ZONE=  2 ACTIVE CELLS=  990 NUMBER OF EQUATIONS=     990
 UBUDSV SAVING "      ZETASRF  1" ON UNIT 55 AT TIME STEP199, STRESS PERIOD    1


                      VOLUMETRIC SWI ZONE BUDGET FOR ENTIRE MODEL
                     AT END OF TIME STEP  199 IN STRESS PERIOD   1
                                      ZONE     1
  -----------------------------------------------------------------------------------

        CUMULATIVE VOLUMES      L**3       RATES FOR THIS TIME STEP      L**3/T
        ------------------                 ------------------------

              IN:                                      IN:
              ---                                      ---
             BOUNDARIES =       4.0230E-08            BOUNDARIES =       1.5853E-07
          CONSTANT HEAD =       3.7843E-02         CONSTANT HEAD =           0.1606
            ZONE CHANGE =       1.9171E-03           ZONE CHANGE =       3.7471E-03
       ZONE CHG TIP/TOE =       2.1126E-05      ZONE CHG TIP/TOE =       3.2694E-05
            ZONE MIXING =           0.0000           ZONE MIXING =           0.0000

               TOTAL IN =       3.9781E-02              TOTAL IN =           0.1643

             OUT:                                     OUT:
             ----                                     ----
             BOUNDARIES =       3.9701E-02            BOUNDARIES =           0.1642
          CONSTANT HEAD =           0.0000         CONSTANT HEAD =           0.0000
            ZONE CHANGE =       7.9011E-05           ZONE CHANGE =       1.5949E-04
       ZONE CHG TIP/TOE =       4.1333E-07      ZONE CHG TIP/TOE =       2.5591E-07
            ZONE MIXING =           0.0000           ZONE MIXING =           0.0000

              TOTAL OUT =       3.9780E-02             TOTAL OUT =           0.1643

               IN - OUT =       1.1511E-06              IN - OUT =       1.4573E-05

    PERCENT DISCREPANCY =           0.00     PERCENT DISCREPANCY =           0.01



                      VOLUMETRIC SWI ZONE BUDGET FOR ENTIRE MODEL
                     AT END OF TIME STEP  199 IN STRESS PERIOD   1
                                      ZONE     2
  -----------------------------------------------------------------------------------

        CUMULATIVE VOLUMES      L**3       RATES FOR THIS TIME STEP      L**3/T
        ------------------                 ------------------------

              IN:                                      IN:
              ---                                      ---
             BOUNDARIES =       1.5732E-13            BOUNDARIES =       6.1408E-13
          CONSTANT HEAD =       1.7875E-03         CONSTANT HEAD =       3.5930E-03
            ZONE CHANGE =       7.5090E-05           ZONE CHANGE =       1.3962E-04
       ZONE CHG TIP/TOE =       4.1333E-07      ZONE CHG TIP/TOE =       2.5591E-07
            ZONE MIXING =           0.0000           ZONE MIXING =           0.0000

               TOTAL IN =       1.8630E-03              TOTAL IN =       3.7329E-03

             OUT:                                     OUT:
             ----                                     ----
             BOUNDARIES =       1.5597E-13            BOUNDARIES =       6.6045E-13
          CONSTANT HEAD =           0.0000         CONSTANT HEAD =           0.0000
            ZONE CHANGE =       1.8468E-03           ZONE CHANGE =       3.7341E-03
       ZONE CHG TIP/TOE =       1.7205E-05      ZONE CHG TIP/TOE =       1.2820E-05
            ZONE MIXING =           0.0000           ZONE MIXING =           0.0000

              TOTAL OUT =       1.8640E-03             TOTAL OUT =       3.7469E-03

               IN - OUT =      -1.0544E-06              IN - OUT =      -1.4058E-05

    PERCENT DISCREPANCY =          -0.06     PERCENT DISCREPANCY =          -0.38


 HEAD WILL BE SAVED ON UNIT   51 AT END OF TIME STEP  199, STRESS PERIOD    1
1
  VOLUMETRIC BUDGET FOR ENTIRE MODEL AT END OF TIME STEP  199, STRESS PERIOD   1
  ------------------------------------------------------------------------------

     CUMULATIVE VOLUMES      L**3       RATES FOR THIS TIME STEP      L**3/T
     ------------------                 ------------------------

           IN:                                      IN:
           ---                                      ---
             STORAGE =       7.0147E-05               STORAGE =       1.2692E-05
       CONSTANT HEAD =       3.9630E-02         CONSTANT HEAD =           0.1641
               WELLS =           0.0000                 WELLS =           0.0000
          SWIADDTOCH =           0.0000            SWIADDTOCH =           0.0000

            TOTAL IN =       3.9701E-02              TOTAL IN =           0.1642

          OUT:                                     OUT:
          ----                                     ----
             STORAGE =       1.0291E-09               STORAGE =       4.7889E-09
       CONSTANT HEAD =           0.0000         CONSTANT HEAD =           0.0000
               WELLS =       3.9701E-02                 WELLS =           0.1642
          SWIADDTOCH =       1.7886E-09            SWIADDTOCH =           0.0000

           TOTAL OUT =       3.9701E-02             TOTAL OUT =           0.1642

            IN - OUT =      -3.7253E-09              IN - OUT =       2.0862E-07

 PERCENT DISCREPANCY =          -0.00     PERCENT DISCREPANCY =           0.00






         TIME SUMMARY AT END OF TIME STEP  199 IN STRESS PERIOD    1
                    SECONDS     MINUTES      HOURS       DAYS        YEARS
                    -----------------------------------------------------------
   TIME STEP LENGTH  105.00      1.7500     2.91667E-02 1.21528E-03 3.32726E-06
 STRESS PERIOD TIME  20895.      348.25      5.8042     0.24184     6.62123E-04
         TOTAL TIME  20895.      348.25      5.8042     0.24184     6.62123E-04
1

 SOLVING FOR HEAD 
     2 EXTERNAL ITERATIONS FOR TIME STEP 200 IN STRESS PERIOD    1

 MAXIMUM HEAD CHANGE FOR EACH ITERATION:

     HEAD CHANGE  LAY,ROW,COL      HEAD CHANGE  LAY,ROW,COL  
 ------------------------------------------------------------
    -2.217E-05 (  6,    1, 1000)  -1.730E-07 (  6,    1, 1000)



 OUTPUT CONTROL FOR STRESS PERIOD    1   TIME STEP  200
    PRINT BUDGET
    SAVE HEAD FOR ALL LAYERS
 SOLVING FOR ZETA FOR LAYER     6 ZONE     2

     494 UPPER PART EQS.       497 LOWER PART EQS.    BAND WIDTH + 1 =    3
 STRESS PERIOD=  1 TIMESTEP=200 LAYER=  6 ZONE=  2 ACTIVE CELLS=  991 NUMBER OF EQUATIONS=     991
 UBUDSV SAVING "      ZETASRF  1" ON UNIT 55 AT TIME STEP200, STRESS PERIOD    1


                      VOLUMETRIC SWI ZONE BUDGET FOR ENTIRE MODEL
                     AT END OF TIME STEP  200 IN STRESS PERIOD   1
                                      ZONE     1
  -----------------------------------------------------------------------------------

        CUMULATIVE VOLUMES      L**3       RATES FOR THIS TIME STEP      L**3/T
        ------------------                 ------------------------

              IN:                                      IN:
              ---                                      ---
             BOUNDARIES =       4.0423E-08            BOUNDARIES =       1.5879E-07
          CONSTANT HEAD =       3.8038E-02         CONSTANT HEAD =           0.1606
            ZONE CHANGE =       1.9216E-03           ZONE CHANGE =       3.7231E-03
       ZONE CHG TIP/TOE =       2.1159E-05      ZONE CHG TIP/TOE =       2.7510E-05
            ZONE MIXING =           0.0000           ZONE MIXING =           0.0000

               TOTAL IN =       3.9981E-02              TOTAL IN =           0.1643

             OUT:                                     OUT:
             ----                                     ----
             BOUNDARIES =       3.9900E-02            BOUNDARIES =           0.1642
          CONSTANT HEAD =           0.0000         CONSTANT HEAD =           0.0000
            ZONE CHANGE =       7.9202E-05           ZONE CHANGE =       1.5702E-04
       ZONE CHG TIP/TOE =       4.1433E-07      ZONE CHG TIP/TOE =       8.2003E-07
            ZONE MIXING =           0.0000           ZONE MIXING =           0.0000

              TOTAL OUT =       3.9980E-02             TOTAL OUT =           0.1643

               IN - OUT =       1.1586E-06              IN - OUT =       1.0431E-05

    PERCENT DISCREPANCY =           0.00     PERCENT DISCREPANCY =           0.01



                      VOLUMETRIC SWI ZONE BUDGET FOR ENTIRE MODEL
                     AT END OF TIME STEP  200 IN STRESS PERIOD   1
                                      ZONE     2
  -----------------------------------------------------------------------------------

        CUMULATIVE VOLUMES      L**3       RATES FOR THIS TIME STEP      L**3/T
        ------------------                 ------------------------

              IN:                                      IN:
              ---                                      ---
             BOUNDARIES =       1.5804E-13            BOUNDARIES =       5.8924E-13
          CONSTANT HEAD =       1.7918E-03         CONSTANT HEAD =       3.5698E-03
            ZONE CHANGE =       7.5260E-05           ZONE CHANGE =       1.3979E-04
       ZONE CHG TIP/TOE =       4.1433E-07      ZONE CHG TIP/TOE =       8.2003E-07
            ZONE MIXING =           0.0000           ZONE MIXING =           0.0000

               TOTAL IN =       1.8675E-03              TOTAL IN =       3.7105E-03

             OUT:                                     OUT:
             ----                                     ----
             BOUNDARIES =       1.5675E-13            BOUNDARIES =       6.4044E-13
          CONSTANT HEAD =           0.0000         CONSTANT HEAD =           0.0000
            ZONE CHANGE =       1.8513E-03           ZONE CHANGE =       3.7101E-03
       ZONE CHG TIP/TOE =       1.7217E-05      ZONE CHG TIP/TOE =       1.0275E-05
            ZONE MIXING =           0.0000           ZONE MIXING =           0.0000

              TOTAL OUT =       1.8686E-03             TOTAL OUT =       3.7204E-03

               IN - OUT =      -1.0662E-06              IN - OUT =      -9.9270E-06

    PERCENT DISCREPANCY =          -0.06     PERCENT DISCREPANCY =          -0.27


 HEAD WILL BE SAVED ON UNIT   51 AT END OF TIME STEP  200, STRESS PERIOD    1
1
  VOLUMETRIC BUDGET FOR ENTIRE MODEL AT END OF TIME STEP  200, STRESS PERIOD   1
  ------------------------------------------------------------------------------

     CUMULATIVE VOLUMES      L**3       RATES FOR THIS TIME STEP      L**3/T
     ------------------                 ------------------------

           IN:                                      IN:
           ---                                      ---
             STORAGE =       7.0162E-05               STORAGE =       1.2644E-05
       CONSTANT HEAD =       3.9830E-02         CONSTANT HEAD =           0.1641
               WELLS =           0.0000                 WELLS =           0.0000
          SWIADDTOCH =           0.0000            SWIADDTOCH =           0.0000

            TOTAL IN =       3.9900E-02              TOTAL IN =           0.1642

          OUT:                                     OUT:
          ----                                     ----
             STORAGE =       1.0372E-09               STORAGE =       6.6503E-09
       CONSTANT HEAD =           0.0000         CONSTANT HEAD =           0.0000
               WELLS =       3.9900E-02                 WELLS =           0.1642
          SWIADDTOCH =       1.7886E-09            SWIADDTOCH =           0.0000

           TOTAL OUT =       3.9900E-02             TOTAL OUT =           0.1642

            IN - OUT =      -3.7253E-09              IN - OUT =       2.2352E-07

 PERCENT DISCREPANCY =          -0.00     PERCENT DISCREPANCY =           0.00






         TIME SUMMARY AT END OF TIME STEP  200 IN STRESS PERIOD    1
                    SECONDS     MINUTES      HOURS       DAYS        YEARS
                    -----------------------------------------------------------
   TIME STEP LENGTH  105.00      1.7500     2.91667E-02 1.21528E-03 3.32726E-06
 STRESS PERIOD TIME  21000.      350.00      5.8333     0.24306     6.65451E-04
         TOTAL TIME  21000.      350.00      5.8333     0.24306     6.65451E-04
1

 Run end date and time (yyyy/mm/dd hh:mm:ss): 2016/02/10  7:33:05
 Elapsed run time:  0.964 Seconds

