                                  MODFLOW-2005     
      U.S. GEOLOGICAL SURVEY MODULAR FINITE-DIFFERENCE GROUND-WATER FLOW MODEL
                            VERSION 1.11.00 8/8/2013

 LIST FILE: test1tr.lst
                         UNIT    9

 OPENING test1tr.ba6
 FILE TYPE:BAS6   UNIT   75   STATUS:OLD    
 FORMAT:FORMATTED              ACCESS:SEQUENTIAL          

 OPENING test1tr.lpf
 FILE TYPE:LPF   UNIT    7   STATUS:OLD    
 FORMAT:FORMATTED              ACCESS:SEQUENTIAL          

 OPENING test1tr.dis
 FILE TYPE:DIS   UNIT    8   STATUS:OLD    
 FORMAT:FORMATTED              ACCESS:SEQUENTIAL          

 OPENING test1tr.sip
 FILE TYPE:SIP   UNIT   13   STATUS:OLD    
 FORMAT:FORMATTED              ACCESS:SEQUENTIAL          

 OPENING test1tr.oc
 FILE TYPE:OC   UNIT   14   STATUS:OLD    
 FORMAT:FORMATTED              ACCESS:SEQUENTIAL          

 OPENING test1tr.sfr
 FILE TYPE:SFR   UNIT   15   STATUS:OLD    
 FORMAT:FORMATTED              ACCESS:SEQUENTIAL          

 OPENING test1tr.wel
 FILE TYPE:WEL   UNIT   16   STATUS:OLD    
 FORMAT:FORMATTED              ACCESS:SEQUENTIAL          

 OPENING test1tr.ghb
 FILE TYPE:GHB   UNIT   17   STATUS:OLD    
 FORMAT:FORMATTED              ACCESS:SEQUENTIAL          

 OPENING test1tr.evt
 FILE TYPE:EVT   UNIT   18   STATUS:OLD    
 FORMAT:FORMATTED              ACCESS:SEQUENTIAL          

 OPENING test1tr.rch
 FILE TYPE:RCH   UNIT   19   STATUS:OLD    
 FORMAT:FORMATTED              ACCESS:SEQUENTIAL          

 OPENING test1tr.gag
 FILE TYPE:GAGE   UNIT   32   STATUS:OLD    
 FORMAT:FORMATTED              ACCESS:SEQUENTIAL          

 OPENING test1tr.hds
 FILE TYPE:DATA   UNIT   58   STATUS:UNKNOWN
 FORMAT:FORMATTED              ACCESS:SEQUENTIAL          

 OPENING test1tr.et
 FILE TYPE:DATA(BINARY)   UNIT   59   STATUS:UNKNOWN
 FORMAT:BINARY                 ACCESS:SEQUENTIAL          

 OPENING test1tr.flw
 FILE TYPE:DATA   UNIT   81   STATUS:UNKNOWN
 FORMAT:FORMATTED              ACCESS:SEQUENTIAL          

 OPENING test1tr.sg1
 FILE TYPE:DATA   UNIT   83   STATUS:UNKNOWN
 FORMAT:FORMATTED              ACCESS:SEQUENTIAL          

 OPENING test1tr.sg2
 FILE TYPE:DATA   UNIT   84   STATUS:UNKNOWN
 FORMAT:FORMATTED              ACCESS:SEQUENTIAL          

 OPENING test1tr.sg3
 FILE TYPE:DATA   UNIT   85   STATUS:UNKNOWN
 FORMAT:FORMATTED              ACCESS:SEQUENTIAL          

 OPENING test1tr.sg4
 FILE TYPE:DATA   UNIT   86   STATUS:UNKNOWN
 FORMAT:FORMATTED              ACCESS:SEQUENTIAL          

 OPENING test1tr.sg5
 FILE TYPE:DATA   UNIT   87   STATUS:UNKNOWN
 FORMAT:FORMATTED              ACCESS:SEQUENTIAL          

 OPENING test1tr.sg6
 FILE TYPE:DATA   UNIT   88   STATUS:UNKNOWN
 FORMAT:FORMATTED              ACCESS:SEQUENTIAL          

 OPENING test1tr.sg7
 FILE TYPE:DATA   UNIT   89   STATUS:UNKNOWN
 FORMAT:FORMATTED              ACCESS:SEQUENTIAL          

 OPENING test1tr.sg8
 FILE TYPE:DATA   UNIT   90   STATUS:UNKNOWN
 FORMAT:FORMATTED              ACCESS:SEQUENTIAL          

 OPENING test1tr.dvsg9
 FILE TYPE:DATA   UNIT   91   STATUS:UNKNOWN
 FORMAT:FORMATTED              ACCESS:SEQUENTIAL          

 BAS -- BASIC PACKAGE, VERSION 7, 5/2/2005 INPUT READ FROM UNIT   75
 
 MODFLOW was compiled using mixed precision
 Precision of REAL variables:           6
 Precision of DOUBLE PRECISION variables:          15

 DISCRETIZATION INPUT DATA READ FROM UNIT    8
 #Discretization input data for Test1 --Transient
    1 LAYERS        15 ROWS        10 COLUMNS
    2 STRESS PERIOD(S) IN SIMULATION
 MODEL TIME UNIT IS SECONDS
 MODEL LENGTH UNIT IS FEET
  Confining bed flag for each layer:
   0

                     DELR =   5000.00    

                     DELC =   5000.00    



           TOP ELEVATION OF LAYER 1
 READING ON UNIT    8 WITH FORMAT: (10F7.0)            

            1           2           3           4           5           6           7           8           9          10
 ........................................................................................................................
   1    1105.       1105.       0.000       0.000       0.000       0.000       0.000       0.000       0.000       0.000    
   2    1105.       1095.       1105.       0.000       0.000       1100.       1100.       1110.       0.000       0.000    
   3    0.000       1100.       1085.       1080.       1078.       1076.       1073.       1090.       0.000       0.000    
   4    1110.       1100.       1090.       1085.       1076.       1080.       1080.       1070.       1100.       0.000    
   5    1110.       1100.       1085.       1080.       1078.       1074.       1077.       1066.       1075.       1080.    
   6    1105.       1095.       1080.       1077.       1073.       1069.       1070.       1063.       1085.       1095.    
   7    1105.       1090.       1075.       1072.       1070.       1065.       1065.       1069.       1090.       0.000    
   8    0.000       1080.       1070.       1068.       1063.       1060.       1063.       1067.       1090.       0.000    
   9    0.000       1075.       1065.       1062.       1058.       1052.       1055.       1065.       1090.       0.000    
  10    0.000       1070.       1060.       1055.       1046.       1046.       1044.       1060.       1088.       1100.    
  11    0.000       1055.       1050.       1045.       1041.       1042.       1040.       1050.       1075.       0.000    
  12    1027.       1028.       1028.       1032.       1032.       1033.       1032.       1040.       1060.       0.000    
  13    997.0       1004.       1008.       1014.       1020.       1027.       1032.       1038.       1050.       0.000    
  14    0.000       1030.       1040.       1045.       1050.       1050.       1050.       1050.       1044.       0.000    
  15    0.000       0.000       1080.       1080.       1080.       1080.       0.000       0.000       0.000       0.000    



             MODEL LAYER BOTTOM EL. FOR LAYER   1
 READING ON UNIT    8 WITH FORMAT: (10F7.0)            

            1           2           3           4           5           6           7           8           9          10
 ........................................................................................................................
   1   1000.0      1000.0       0.000       0.000       0.000       0.000       0.000       0.000       0.000       0.000    
   2   1000.0       900.0       900.0       0.000       0.000       950.0       950.0       950.0       0.000       0.000    
   3    0.000       850.0       670.0       680.0       680.0       770.0       770.0       890.0       0.000       0.000    
   4    925.0       850.0       650.0       650.0       650.0       680.0       740.0       850.0       950.0       0.000    
   5    925.0       800.0       650.0       600.0       600.0       600.0       650.0       720.0       850.0       950.0    
   6    925.0       800.0       650.0       600.0       550.0       600.0       650.0       720.0       850.0       970.0    
   7    925.0       800.0       650.0       600.0       550.0       600.0       650.0       720.0       950.0       0.000    
   8    0.000       850.0       700.0       650.0       570.0       600.0       700.0       850.0       950.0       0.000    
   9    0.000       850.0       700.0       650.0       540.0       580.0       700.0       850.0       950.0       0.000    
  10    0.000       850.0       700.0       630.0       530.0       580.0       650.0       800.0       900.0       950.0    
  11    0.000       850.0       700.0       620.0       580.0       620.0       700.0       800.0       900.0       0.000    
  12    900.0       830.0       710.0       640.0       600.0       650.0       700.0       800.0       900.0       0.000    
  13    900.0       810.0       750.0       700.0       650.0       700.0       750.0       800.0       900.0       0.000    
  14    0.000       950.0       850.0       850.0       850.0       850.0       850.0       850.0       850.0       0.000    
  15    0.000       0.000       950.0       950.0       950.0       950.0       0.000       0.000       0.000       0.000    


 STRESS PERIOD     LENGTH       TIME STEPS     MULTIPLIER FOR DELT    SS FLAG
 ----------------------------------------------------------------------------
        1        1.5778801E+09     50                    1.100         TR
        2        1.5778801E+09     50                    1.100         TR

 TRANSIENT SIMULATION



 
 #TestProblem 1                                                                  
 #Transient Simulation For SFR Package                                           
 THE FREE FORMAT OPTION HAS BEEN SELECTED



                     BOUNDARY ARRAY FOR LAYER   1
 READING ON UNIT   75 WITH FORMAT: (20I4)              

                1           2           3           4           5           6           7           8           9          10
 ............................................................................................................................
   1            1           1           0           0           0           0           0           0           0           0
   2            1           1           1           0           0           1           1           1           0           0
   3            0           1           1           1           1           1           1           1           0           0
   4            1           1           1           1           1           1           1           1           1           0
   5            1           1           1           1           1           1           1           1           1           1
   6            1           1           1           1           1           1           1           1           1           1
   7            1           1           1           1           1           1           1           1           1           0
   8            0           1           1           1           1           1           1           1           1           0
   9            0           1           1           1           1           1           1           1           1           0
  10            0           1           1           1           1           1           1           1           1           1
  11            0           1           1           1           1           1           1           1           1           0
  12            1           1           1           1           1           1           1           1           1           0
  13            1           1           1           1           1           1           1           1           1           0
  14            0           1           1           1           1           1           1           1           1           0
  15            0           0           1           1           1           1           0           0           0           0

 AQUIFER HEAD WILL BE SET TO   6999.0     AT ALL NO-FLOW NODES (IBOUND=0).



                       INITIAL HEAD FOR LAYER   1
 READING ON UNIT   75 WITH FORMAT: (10F8.0)            

            1           2           3           4           5           6           7           8           9          10
 ........................................................................................................................
   1    1093.       1089.       6999.       6999.       6999.       6999.       6999.       6999.       6999.       6999.    
   2    1090.       1087.       1081.       6999.       6999.       1072.       1072.       1071.       6999.       6999.    
   3    6999.       1079.       1078.       1074.       1072.       1071.       1069.       1068.       6999.       6999.    
   4    1069.       1071.       1070.       1067.       1066.       1064.       1064.       1066.       1066.       6999.    
   5    1065.       1064.       1063.       1062.       1061.       1061.       1060.       1062.       1066.       1068.    
   6    1060.       1058.       1057.       1056.       1056.       1057.       1057.       1059.       1062.       1066.    
   7    1056.       1053.       1052.       1051.       1051.       1052.       1053.       1056.       1056.       6999.    
   8    6999.       1046.       1046.       1046.       1046.       1046.       1048.       1050.       1050.       6999.    
   9    6999.       1039.       1039.       1040.       1040.       1041.       1042.       1043.       1044.       6999.    
  10    6999.       1031.       1032.       1033.       1034.       1035.       1036.       1038.       1039.       1042.    
  11    6999.       1021.       1023.       1027.       1029.       1030.       1032.       1034.       1036.       6999.    
  12    1001.       1009.       1014.       1020.       1023.       1026.       1029.       1030.       1034.       6999.    
  13    994.5      1000.0       1007.       1013.       1019.       1024.       1029.       1034.       1036.       6999.    
  14    6999.       1004.       1009.       1014.       1019.       1024.       1030.       1035.       1039.       6999.    
  15    6999.       6999.       1012.       1015.       1019.       1022.       6999.       6999.       6999.       6999.    

 OUTPUT CONTROL IS SPECIFIED ONLY AT TIME STEPS FOR WHICH OUTPUT IS DESIRED
 HEADS WILL BE SAVED WITH FORMAT: (10F10.3)           
 SAVED HEADS WILL BE LABELED
 HEAD PRINT FORMAT CODE IS   4    DRAWDOWN PRINT FORMAT CODE IS   0
 HEADS WILL BE SAVED ON UNIT   58    DRAWDOWNS WILL BE SAVED ON UNIT    0

 LPF -- LAYER-PROPERTY FLOW PACKAGE, VERSION 7, 5/2/2005
         INPUT READ FROM UNIT    7
 # Layer-Property Flow Package input
 # For transient and steady state simulations
 HEAD AT CELLS THAT CONVERT TO DRY=   0.0000    
 No named parameters

   LAYER FLAGS:
 LAYER       LAYTYP        LAYAVG         CHANI        LAYVKA        LAYWET
 ---------------------------------------------------------------------------
    1             1             0     1.000E+00             1             0

   INTERPRETATION OF LAYER FLAGS:
                        INTERBLOCK     HORIZONTAL    DATA IN
         LAYER TYPE   TRANSMISSIVITY   ANISOTROPY   ARRAY VKA   WETTABILITY
 LAYER      (LAYTYP)      (LAYAVG)       (CHANI)      (LAYVKA)      (LAYWET)
 ---------------------------------------------------------------------------
    1   CONVERTIBLE      HARMONIC     1.000E+00    ANISOTROPY  NON-WETTABLE

 WETTING CAPABILITY IS NOT ACTIVE IN ANY LAYER



              HYD. COND. ALONG ROWS FOR LAYER   1
 READING ON UNIT    7 WITH FORMAT: (10F5.0)            

            1           2           3           4           5           6           7           8           9          10
 ........................................................................................................................
   1   2.0000E-03  2.0000E-03   0.000       0.000       0.000       0.000       0.000       0.000       0.000       0.000    
   2   4.0000E-04  2.0000E-03  2.0000E-03   0.000       0.000      4.0000E-04  4.0000E-04  4.0000E-04   0.000       0.000    
   3    0.000      4.0000E-04  2.0000E-03  2.0000E-03  4.0000E-04  4.0000E-04  4.0000E-04  4.0000E-04   0.000       0.000    
   4   4.0000E-04  4.0000E-04  4.0000E-04  2.0000E-03  2.0000E-03  2.0000E-03  4.0000E-04  4.0000E-04  4.0000E-04   0.000    
   5   4.0000E-04  4.0000E-04  4.0000E-04  2.0000E-03  2.0000E-03  2.0000E-03  2.0000E-03  2.0000E-03  2.0000E-03  2.0000E-03
   6   4.0000E-04  4.0000E-04  4.0000E-04  2.0000E-03  2.0000E-03  2.0000E-03  2.0000E-03  2.0000E-03  4.0000E-04  4.0000E-04
   7   4.0000E-04  4.0000E-04  4.0000E-04  2.0000E-03  2.0000E-03  2.0000E-03  2.0000E-03  2.0000E-03  4.0000E-04   0.000    
   8    0.000      4.0000E-04  4.0000E-04  2.0000E-03  2.0000E-03  2.0000E-03  2.0000E-03  4.0000E-04  4.0000E-04   0.000    
   9    0.000      4.0000E-04  4.0000E-04  2.0000E-03  2.0000E-03  2.0000E-03  2.0000E-03  4.0000E-04  4.0000E-04   0.000    
  10    0.000      4.0000E-04  4.0000E-04  2.0000E-03  2.0000E-03  2.0000E-03  2.0000E-03  4.0000E-04  4.0000E-04  4.0000E-04
  11    0.000      4.0000E-04  4.0000E-04  2.0000E-03  2.0000E-03  2.0000E-03  2.0000E-03  4.0000E-04  4.0000E-04   0.000    
  12   4.0000E-04  4.0000E-04  2.0000E-03  2.0000E-03  2.0000E-03  2.0000E-03  2.0000E-03  4.0000E-04  4.0000E-04   0.000    
  13   2.0000E-03  2.0000E-03  2.0000E-03  2.0000E-03  2.0000E-03  2.0000E-03  2.0000E-03  2.0000E-03  2.0000E-03   0.000    
  14    0.000      4.0000E-04  4.0000E-04  4.0000E-04  4.0000E-04  4.0000E-04  4.0000E-04  4.0000E-04  2.0000E-03   0.000    
  15    0.000       0.000      4.0000E-04  4.0000E-04  4.0000E-04  4.0000E-04   0.000       0.000       0.000       0.000    

  HORIZ. TO VERTICAL ANI. =  1.000000     FOR LAYER   1

         SPECIFIC STORAGE =  1.000000E-06 FOR LAYER   1



                     SPECIFIC YIELD FOR LAYER   1
 READING ON UNIT    7 WITH FORMAT: (10F4.0)            

            1           2           3           4           5           6           7           8           9          10
 ........................................................................................................................
   1   0.2000      0.2000       0.000       0.000       0.000       0.000       0.000       0.000       0.000       0.000    
   2   1.0000E-01  0.2000      0.2000       0.000       0.000      1.0000E-01  1.0000E-01  1.0000E-01   0.000       0.000    
   3    0.000      1.0000E-01  0.2000      0.2000      1.0000E-01  1.0000E-01  1.0000E-01  1.0000E-01   0.000       0.000    
   4   1.0000E-01  1.0000E-01  1.0000E-01  0.2000      0.2000      0.2000      1.0000E-01  1.0000E-01  1.0000E-01   0.000    
   5   1.0000E-01  1.0000E-01  1.0000E-01  0.2000      0.2000      0.2000      0.2000      0.2000      0.2000      0.2000    
   6   1.0000E-01  1.0000E-01  1.0000E-01  0.2000      0.2000      0.2000      0.2000      0.2000      1.0000E-01  1.0000E-01
   7   1.0000E-01  1.0000E-01  1.0000E-01  0.2000      0.2000      0.2000      0.2000      0.2000      1.0000E-01   0.000    
   8    0.000      1.0000E-01  1.0000E-01  0.2000      0.2000      0.2000      0.2000      1.0000E-01  1.0000E-01   0.000    
   9    0.000      1.0000E-01  1.0000E-01  0.2000      0.2000      0.2000      0.2000      1.0000E-01  1.0000E-01   0.000    
  10    0.000      1.0000E-01  1.0000E-01  0.2000      0.2000      0.2000      0.2000      1.0000E-01  1.0000E-01  1.0000E-01
  11    0.000      1.0000E-01  1.0000E-01  0.2000      0.2000      0.2000      0.2000      1.0000E-01  1.0000E-01   0.000    
  12   1.0000E-01  1.0000E-01  0.2000      0.2000      0.2000      0.2000      0.2000      1.0000E-01  1.0000E-01   0.000    
  13   0.2000      0.2000      0.2000      0.2000      0.2000      0.2000      0.2000      0.2000      0.2000       0.000    
  14    0.000      1.0000E-01  1.0000E-01  1.0000E-01  1.0000E-01  1.0000E-01  1.0000E-01  1.0000E-01  0.2000       0.000    
  15    0.000       0.000      1.0000E-01  1.0000E-01  1.0000E-01  1.0000E-01   0.000       0.000       0.000       0.000    

 WEL -- WELL PACKAGE, VERSION 7, 5/2/2005 INPUT READ FROM UNIT   16
 No named parameters
 MAXIMUM OF     10 ACTIVE WELLS AT ONE TIME
 CELL-BY-CELL FLOWS WILL BE PRINTED WHEN ICBCFL NOT 0


     0 Well parameters

 EVT -- EVAPOTRANSPIRATION PACKAGE, VERSION 7, 5/2/2005
         INPUT READ FROM UNIT   18
 No named parameters
 OPTION 1 -- EVAPOTRANSPIRATION FROM TOP LAYER
 CELL-BY-CELL FLOWS WILL BE SAVED ON UNIT   59


     0 Evapotranspiration parameters

 GHB -- GENERAL-HEAD BOUNDARY PACKAGE, VERSION 7, 5/2/2005
         INPUT READ FROM UNIT   17
 No named parameters
 MAXIMUM OF      2 ACTIVE GHB CELLS AT ONE TIME
 CELL-BY-CELL FLOWS WILL BE PRINTED WHEN ICBCFL NOT 0


     0 GHB parameters

 RCH -- RECHARGE PACKAGE, VERSION 7, 5/2/2005 INPUT READ FROM UNIT   19
 No named parameters
 OPTION 1 -- RECHARGE TO TOP LAYER


     0 Recharge parameters

 SFR7 -- STREAMFLOW ROUTING PACKAGE, VERSION 1.0.7, 2013-01-15
         INPUT READ FROM UNIT  15
 #Test Problem 1 using SFR1
 No named parameters
 Segment information will not be 
 read by reach
 No named parameters
 No specifed inflow files


 NUMBER OF STREAM REACHES IS   36

 NUMBER OF STREAM SEGMENTS IS    8

 NUMBER OF STREAM PARAMETERS IS    0

 NUMBER OF STREAM SEGMENTS DEFINED USING PARAMETERS IS              0

 MAXIMUM ERROR FOR STREAM LEAKAGE RATES IS  1.00E-04

 CONSTANT FOR MANNINGS EQUATION IS  1.4860E+00



 STREAM OUTPUT WILL BE WRITTEN TO FILE ON UNIT   81


   STREAM NETWORK DESCRIPTION: 

   LAYER    ROW    COL   SEGMENT   REACH     LENGTH
                          NUMBER   NUMBER    IN CELL        
   --------------------------------------------------
      1      1      1       1        1    4.5000E+03
      1      2      2       1        2    7.0000E+03
      1      3      3       1        3    6.0000E+03
      1      3      4       1        4    5.5500E+03
      1      4      5       2        1    6.5000E+03
      1      5      6       2        2    5.0000E+03
      1      6      6       2        3    5.0000E+03
      1      7      6       2        4    5.0000E+03
      1      8      6       2        5    5.0000E+03
      1      3      5       3        1    5.0000E+03
      1      3      6       3        2    5.0000E+03
      1      3      7       3        3    4.5000E+03
      1      4      8       3        4    6.0000E+03
      1      5      8       3        5    5.0000E+03
      1      6      8       3        6    2.0000E+03
      1      5     10       4        1    2.5000E+03
      1      5      9       4        2    5.0000E+03
      1      6      8       4        3    3.5000E+03
      1      6      8       5        1    4.0000E+03
      1      7      7       5        2    5.0000E+03
      1      8      7       5        3    3.5000E+03
      1      8      6       5        4    2.5000E+03
      1      9      6       6        1    5.0000E+03
      1     10      7       6        2    5.0000E+03
      1     11      7       6        3    5.0000E+03
      1     12      7       6        4    5.0000E+03
      1     13      7       6        5    2.0000E+03
      1     14      9       7        1    5.0000E+03
      1     13      8       7        2    5.5000E+03
      1     13      7       7        3    5.0000E+03
      1     13      6       8        1    5.0000E+03
      1     13      5       8        2    5.0000E+03
      1     13      4       8        3    5.0000E+03
      1     13      3       8        4    5.0000E+03
      1     13      2       8        5    5.0000E+03
      1     13      1       8        6    3.0000E+03






   9 GAGING STATIONS WERE SPECIFIED.
     (Lakes are identified by a negative value of the Lake Number)
     RECORDS WILL BE WRITTEN TO SEPARATE OUTPUT FILES REPRESENTED BY FOLLOWING UNIT NUMBERS:

 Stream Gages:
  GAGE #   SEGMENT   REACH   UNIT   OUTTYPE
       1       1       4      83       4
       2       2       3      84       1
       3       3       5      85       1
       4       4       3      86       1
       5       5       4      87       4
       6       6       5      88       1
       7       7       3      89       4
       8       8       6      90       4
       9       3       1      91       5





 SIP -- STRONGLY-IMPLICIT PROCEDURE SOLUTION PACKAGE
                    VERSION 7, 5/2/2005 INPUT READ FROM UNIT   13
 MAXIMUM OF 300 ITERATIONS ALLOWED FOR CLOSURE
  5 ITERATION PARAMETERS

          SOLUTION BY THE STRONGLY IMPLICIT PROCEDURE
          -------------------------------------------
 MAXIMUM ITERATIONS ALLOWED FOR CLOSURE =      300
                 ACCELERATION PARAMETER =    0.80000    
      HEAD CHANGE CRITERION FOR CLOSURE =    0.80000E-03
      SIP HEAD CHANGE PRINTOUT INTERVAL =        1

     CALCULATE ITERATION PARAMETERS FROM MODEL CALCULATED WSEED
1
                            STRESS PERIOD NO.    1, LENGTH =  0.1577880E+10
                            -----------------------------------------------

                              NUMBER OF TIME STEPS =    50

                               MULTIPLIER FOR DELT =     1.100

                            INITIAL TIME STEP SIZE =   1355672.    

 WELL NO.  LAYER   ROW   COL   STRESS RATE         
 --------------------------------------------------
      1      1      6      4     -10.000    
      2      1      6      5     -10.000    
      3      1      7      4     -10.000    
      4      1      7      5     -10.000    
      5      1      8      4     -10.000    
      6      1      8      5     -10.000    
      7      1      9      4     -10.000    
      8      1      9      5     -10.000    
      9      1     10      4     -10.000    
     10      1     10      5     -10.000    

     10 WELLS



                         ET SURFACE
 READING ON UNIT   18 WITH FORMAT: (10F7.0)            

            1           2           3           4           5           6           7           8           9          10
 ........................................................................................................................
   1    1110.       1110.       0.000       0.000       0.000       0.000       0.000       0.000       0.000       0.000    
   2    1110.       1105.       1110.       0.000       0.000       1100.       1100.       1110.       0.000       0.000    
   3    0.000       1100.       1095.       1088.       1085.       1085.       1085.       1090.       0.000       0.000    
   4    1105.       1100.       1090.       1083.       1078.       1075.       1080.       1085.       1100.       0.000    
   5    1105.       1090.       1080.       1077.       1074.       1073.       1074.       1078.       1080.       1085.    
   6    1100.       1080.       1075.       1072.       1071.       1069.       1070.       1075.       1080.       1100.    
   7    1100.       1080.       1070.       1065.       1065.       1065.       1065.       1070.       1090.       0.000    
   8    0.000       1075.       1065.       1059.       1059.       1058.       1063.       1070.       1090.       0.000    
   9    0.000       1065.       1055.       1053.       1053.       1052.       1055.       1065.       1090.       0.000    
  10    0.000       1060.       1046.       1046.       1046.       1046.       1044.       1060.       1088.       1100.    
  11    0.000       1045.       1039.       1040.       1041.       1042.       1040.       1050.       1075.       0.000    
  12    1027.       1028.       1028.       1032.       1032.       1033.       1032.       1040.       1060.       0.000    
  13    997.0       1004.       1008.       1014.       1020.       1027.       1032.       1038.       1050.       0.000    
  14    0.000       1030.       1040.       1045.       1050.       1050.       1050.       1050.       1044.       0.000    
  15    0.000       0.000       1080.       1080.       1080.       1080.       0.000       0.000       0.000       0.000    

  EVAPOTRANSPIRATION RATE =  9.500000E-08

         EXTINCTION DEPTH =   15.0000    

 BOUND. NO. LAYER   ROW   COL     STAGE      CONDUCTANCE         
 ----------------------------------------------------------------
      1      1     13      1       988.0          0.3800E-01
      2      1     14      9       1045.          0.3800E-01

      2 GHB CELLS



                           RECHARGE
 READING ON UNIT   19 WITH FORMAT: (10F4.0)            

            1           2           3           4           5           6           7           8           9          10
 ........................................................................................................................
   1   2.5000E-10  1.0000E-09   0.000       0.000       0.000       0.000       0.000       0.000       0.000       0.000    
   2   1.0000E-09  2.5000E-10  1.0000E-09   0.000       0.000      4.0000E-09  4.0000E-09  4.0000E-09   0.000       0.000    
   3    0.000      1.0000E-09  2.5000E-10  1.0000E-09  1.0000E-09  2.5000E-10  2.5000E-10  2.5000E-10   0.000       0.000    
   4   4.0000E-09  2.5000E-10  2.5000E-10  2.5000E-10  2.5000E-10  2.5000E-10  2.5000E-10  2.5000E-10  1.0000E-09   0.000    
   5   4.0000E-09  2.5000E-10  2.5000E-10  2.5000E-10  2.5000E-10  2.5000E-10  2.5000E-10  2.5000E-10  2.5000E-10  2.5000E-10
   6   1.0000E-09  2.5000E-10  2.5000E-10  2.5000E-10  2.5000E-10  2.5000E-10  2.5000E-10  2.5000E-10  2.5000E-10  1.0000E-09
   7   1.0000E-09  2.5000E-10  2.5000E-10  2.5000E-10  2.5000E-10  2.5000E-10  2.5000E-10  2.5000E-10  1.0000E-09   0.000    
   8    0.000      1.0000E-09  2.5000E-10  2.5000E-10  2.5000E-10  2.5000E-10  2.5000E-10  2.5000E-10  1.0000E-09   0.000    
   9    0.000      1.0000E-09  2.5000E-10  2.5000E-10  2.5000E-10  2.5000E-10  2.5000E-10  2.5000E-10  1.0000E-09   0.000    
  10    0.000      1.0000E-09  2.5000E-10  2.5000E-10  2.5000E-10  2.5000E-10  2.5000E-10  2.5000E-10  2.5000E-10  4.0000E-09
  11    0.000      1.0000E-09  2.5000E-10  2.5000E-10  2.5000E-10  2.5000E-10  2.5000E-10  2.5000E-10  1.0000E-09   0.000    
  12   1.0000E-09  2.5000E-10  2.5000E-10  2.5000E-10  2.5000E-10  2.5000E-10  2.5000E-10  2.5000E-10  1.0000E-09   0.000    
  13   2.5000E-10  2.5000E-10  2.5000E-10  2.5000E-10  2.5000E-10  2.5000E-10  2.5000E-10  2.5000E-10  1.0000E-09   0.000    
  14    0.000      2.5000E-10  2.5000E-10  2.5000E-10  2.5000E-10  2.5000E-10  1.0000E-09  1.0000E-09  2.5000E-10   0.000    
  15    0.000       0.000      1.0000E-09  1.0000E-09  1.0000E-09  1.0000E-09   0.000       0.000       0.000       0.000    



 CLASSIFICATION & COUNT OF STREAM SEGMENTS BASED ON SOURCE OF INFLOW:

                HEADWATER     DIVERSION     RECEIVES TRIBUTARY FLOW
                ---------     ---------     -----------------------
                     3              1               4



                    INPUT DATA FOR EACH STREAM SEGMENT
 ---------------------------------------------------------------------------------------------

 SEGMENT    SEG.     INFLOW   OVERLAND   STREAM    STREAM   ICALC  OUTFLOW  DIVERSION PRIORITY
    NO.    LENGTH     RATE     RUNOFF      ET       PPT.    METH.  TO SEG.  FROM SEG.    NO.

      1  2.305E+04 2.500E+01 0.000E+00 0.000E+00 0.000E+00    4        2        0        0
      2  2.650E+04 0.000E+00 0.000E+00 0.000E+00 0.000E+00    1        6        0        0
      3  2.750E+04 1.000E+01 0.000E+00 0.000E+00 0.000E+00    0        5        1        0
      4  1.100E+04 1.000E+01 0.000E+00 0.000E+00 0.000E+00    1        5        0        0
      5  1.500E+04 0.000E+00 0.000E+00 0.000E+00 0.000E+00    3        6        0        0
      6  2.200E+04 0.000E+00 0.000E+00 0.000E+00 0.000E+00    1        8        0        0
      7  1.550E+04 1.500E+02 0.000E+00 0.000E+00 0.000E+00    2        8        0        0
      8  2.800E+04 0.000E+00 0.000E+00 0.000E+00 0.000E+00    2        0        0        0


         STREAMBED PROPERTIES AND STREAM DIMENSIONS

 SEGMENT     BED HYD. COND.      BED THICKNESS     ELEV.-TOP OF BED     WIDTH OF STREAM     DEPTH OF STREAM    STREAM ROUGHNESS
    No.     UPPER     LOWER     UPPER     LOWER     UPPER     LOWER     UPPER     LOWER     UPPER     LOWER   CHANNEL      BANK

     1  3.000E-05 3.000E-05 3.000E+00 3.000E+00 1.095E+03 1.075E+03
     2  3.000E-05 3.000E-05 3.000E+00 3.000E+00 1.075E+03 1.050E+03 1.200E+01 1.200E+01                     3.000E-02
     3  3.000E-05 3.000E-05 2.000E+00 2.000E+00 1.075E+03 1.060E+03 1.000E+01 6.000E+00 2.000E+00 1.000E+00
     4  3.000E-05 3.000E-05 3.000E+00 3.000E+00 1.080E+03 1.060E+03 1.000E+01 1.000E+01                     3.000E-02
     5  3.000E-05 3.000E-05 3.000E+00 3.000E+00 1.060E+03 1.045E+03
     6  3.000E-05 3.000E-05 3.000E+00 3.000E+00 1.045E+03 1.025E+03 1.200E+01 1.200E+01                     3.000E-02
     7  6.000E-05 6.000E-05 3.000E+00 3.000E+00 1.040E+03 1.025E+03                                         2.500E-02 4.500E-02
     8  6.000E-05 6.000E-05 3.000E+00 3.000E+00 1.025E+03 9.900E+02                                         2.500E-02 4.500E-02

  EIGHT POINT CROSS-SECTION DATA FOR SEGMENTS WITH ICALC = 2
    X VALUES X VALUES START FROM LEFT SIDE LOOKING DOWNSTREAM

     SEGMENT NO.        X1        X2        X3        X4        X5        X6        X7        X8
            7      0.000E+00 1.000E+01 8.000E+01 1.000E+02 1.500E+02 1.700E+02 2.400E+02 2.500E+02
            8      0.000E+00 1.000E+01 8.000E+01 1.000E+02 1.500E+02 1.700E+02 2.400E+02 2.500E+02

    Z VALUES ARE RELATIVE TO STREAMBED ELEVATION

     SEGMENT NO.          Z1        Z2        Z3        Z4        Z5        Z6        Z7        Z8
            7      2.000E+01 1.300E+01 1.000E+01 2.000E+00 0.000E+00 1.000E+01 1.300E+01 2.000E+01
            8      2.500E+01 1.700E+01 1.300E+01 4.000E+00 0.000E+00 1.000E+01 1.600E+01 2.000E+01

 STREAMFLOW RELATION WITH DEPTH IS BASED ON EQUATION Q = CDPTH*(DEPTH)**FDPTH
 STREAMFLOW RELATION WITH WIDTH IS BASED ON EQUATION Q = AWDTH*(WIDTH)**BWDTH

 SEGMENT NO.      CDPTH     FDPTH    AWDTH     BWDTH

          5 3.000E-01 3.500E-01 3.800E+00 6.000E-01

 STREAMFLOW RELATION WITH DEPTH AND WIDTH IS BASED ON TABULATED VALUES

  SEGMENT NO.   STREAMFLOW       DEPTH       WIDTH

          1     5.0000E-01   2.5000E-01   3.0000E+00
          1     1.0000E+00   4.0000E-01   3.5000E+00
          1     2.0000E+00   5.5000E-01   4.2000E+00
          1     4.0000E+00   7.0000E-01   5.3000E+00
          1     7.0000E+00   8.0000E-01   7.0000E+00
          1     1.0000E+01   9.0000E-01   8.5000E+00
          1     2.0000E+01   1.1000E+00   1.2000E+01
          1     3.0000E+01   1.2500E+00   1.4000E+01
          1     5.0000E+01   1.4000E+00   1.7000E+01
          1     7.5000E+01   1.7000E+00   2.0000E+01
          1     1.0000E+02   2.6000E+00   2.2000E+01



 
 SOLVING FOR HEAD 

 AVERAGE SEED = 0.00926851
 MINIMUM SEED = 0.00187707

     5 ITERATION PARAMETERS CALCULATED FROM AVERAGE SEED:

  0.000000E+00 0.689721E+00 0.903727E+00 0.970128E+00 0.990731E+00

     6 ITERATIONS FOR TIME STEP   1 IN STRESS PERIOD    1

 MAXIMUM HEAD CHANGE FOR EACH ITERATION:

    HEAD CHANGE   HEAD CHANGE   HEAD CHANGE   HEAD CHANGE   HEAD CHANGE
  LAYER,ROW,COL LAYER,ROW,COL LAYER,ROW,COL LAYER,ROW,COL LAYER,ROW,COL
 ----------------------------------------------------------------------
     -1.862       -0.4428       -0.9348E-01   -0.1904E-01   -0.3841E-02
  (  1,  9,  4) (  1,  8,  4) (  1,  8,  4) (  1,  8,  4) (  1,  8,  5)
    -0.7596E-03
  (  1,  8,  5)


 OUTPUT CONTROL FOR STRESS PERIOD    1   TIME STEP    1
    PRINT BUDGET
    PRINT HEAD FOR ALL LAYERS
    SAVE BUDGET

            WELLS   PERIOD    1   STEP   1
 WELL      1   LAYER   1   ROW     6   COL     4   RATE   -10.00000    
 WELL      2   LAYER   1   ROW     6   COL     5   RATE   -10.00000    
 WELL      3   LAYER   1   ROW     7   COL     4   RATE   -10.00000    
 WELL      4   LAYER   1   ROW     7   COL     5   RATE   -10.00000    
 WELL      5   LAYER   1   ROW     8   COL     4   RATE   -10.00000    
 WELL      6   LAYER   1   ROW     8   COL     5   RATE   -10.00000    
 WELL      7   LAYER   1   ROW     9   COL     4   RATE   -10.00000    
 WELL      8   LAYER   1   ROW     9   COL     5   RATE   -10.00000    
 WELL      9   LAYER   1   ROW    10   COL     4   RATE   -10.00000    
 WELL     10   LAYER   1   ROW    10   COL     5   RATE   -10.00000    
 UBUDSV SAVING "              ET" ON UNIT 59 AT TIME STEP  1, STRESS PERIOD    1

  HEAD DEP BOUNDS   PERIOD    1   STEP   1
 BOUNDARY      1   LAYER   1   ROW    13   COL     1   RATE   -0.247593    
 BOUNDARY      2   LAYER   1   ROW    14   COL     9   RATE    0.215786    



 STREAM LISTING     PERIOD      1   STEP        1

 LAYER ROW COL. STREAM  RCH.  FLOW INTO     FLOW TO   FLOW OUT OF   OVRLND.     DIRECT     STREAM       STREAM     STREAM     STREAM   STREAMBED  STREAMBED
                SEG.NO.  NO.  STRM. RCH.    AQUIFER    STRM. RCH.    RUNOFF     PRECIP       ET          HEAD       DEPTH      WIDTH   CONDCTNC.   GRADIENT

   1    1    1     1     1    2.5000E+01  7.7759E-01   2.4222E+01  0.000E+00  0.000E+00  0.000E+00  1.09422E+03  1.174E+00  1.298E+01  5.843E-01  4.436E-01
   1    2    2     1     2    2.4222E+01  2.2154E+00   2.2007E+01  0.000E+00  0.000E+00  0.000E+00  1.08921E+03  1.151E+00  1.268E+01  8.875E-01  8.321E-01
   1    3    3     1     3    2.2007E+01  2.9870E+00   1.9020E+01  0.000E+00  0.000E+00  0.000E+00  1.08353E+03  1.109E+00  1.212E+01  7.270E-01  1.370E+00
   1    3    4     1     4    1.9020E+01  2.5494E+00   1.6471E+01  0.000E+00  0.000E+00  0.000E+00  1.07847E+03  1.063E+00  1.131E+01  6.275E-01  1.354E+00
   1    4    5     2     1    6.4706E+00  2.7037E+00   3.7669E+00  0.000E+00  0.000E+00  0.000E+00  1.07240E+03  4.663E-01  1.200E+01  7.800E-01  1.155E+00
   1    5    6     2     2    3.7669E+00  1.9936E+00   1.7734E+00  0.000E+00  0.000E+00  0.000E+00  1.06683E+03  3.226E-01  1.200E+01  6.000E-01  1.108E+00
   1    6    6     2     3    1.7734E+00  1.7734E+00   0.0000E+00  0.000E+00  0.000E+00  0.000E+00  1.06185E+03  5.554E-02  1.200E+01  6.000E-01  1.019E+00
   1    7    6     2     4    0.0000E+00  0.0000E+00   0.0000E+00  0.000E+00  0.000E+00  0.000E+00  1.05708E+03  0.000E+00  1.200E+01  6.000E-01  1.000E+00
   1    8    6     2     5    0.0000E+00  0.0000E+00   0.0000E+00  0.000E+00  0.000E+00  0.000E+00  1.05236E+03  0.000E+00  1.200E+01  6.000E-01  1.000E+00
   1    3    5     3     1    1.0000E+01  2.2033E+00   7.7967E+00  0.000E+00  0.000E+00  0.000E+00  1.07555E+03  1.909E+00  9.636E+00  7.227E-01  1.524E+00
   1    3    6     3     2    7.7967E+00  1.3579E+00   6.4388E+00  0.000E+00  0.000E+00  0.000E+00  1.07264E+03  1.727E+00  8.909E+00  6.682E-01  1.016E+00
   1    3    7     3     3    6.4388E+00  4.1648E-01   6.0223E+00  0.000E+00  0.000E+00  0.000E+00  1.06987E+03  1.555E+00  8.218E+00  5.547E-01  3.754E-01
   1    4    8     3     4    6.0223E+00  6.1208E-01   5.4102E+00  0.000E+00  0.000E+00  0.000E+00  1.06682E+03  1.364E+00  7.455E+00  6.709E-01  4.562E-01
   1    5    8     3     5    5.4102E+00  8.0486E-01   4.6054E+00  0.000E+00  0.000E+00  0.000E+00  1.06362E+03  1.164E+00  6.655E+00  4.991E-01  8.063E-01
   1    6    8     3     6    4.6054E+00  4.5879E-01   4.1466E+00  0.000E+00  0.000E+00  0.000E+00  1.06158E+03  1.036E+00  6.145E+00  1.844E-01  1.244E+00
   1    5   10     4     1    1.0000E+01  9.0525E-01   9.0947E+00  0.000E+00  0.000E+00  0.000E+00  1.07835E+03  6.210E-01  1.000E+01  2.500E-01  1.207E+00
   1    5    9     4     2    9.0947E+00  1.7835E+00   7.3113E+00  0.000E+00  0.000E+00  0.000E+00  1.07148E+03  5.670E-01  1.000E+01  5.000E-01  1.189E+00
   1    6    8     4     3    7.3113E+00  1.2257E+00   6.0855E+00  0.000E+00  0.000E+00  0.000E+00  1.06368E+03  5.021E-01  1.000E+01  3.500E-01  1.167E+00
   1    6    8     5     1    1.0232E+01 -2.5545E-01   1.0488E+01  0.000E+00  0.000E+00  0.000E+00  1.05868E+03  6.800E-01  1.545E+01  6.181E-01 -1.378E-01
   1    7    7     5     2    1.0488E+01  7.7739E-01   9.7102E+00  0.000E+00  0.000E+00  0.000E+00  1.05417E+03  6.739E-01  1.522E+01  7.609E-01  3.406E-01
   1    8    7     5     3    9.7102E+00  1.0761E+00   8.6341E+00  0.000E+00  0.000E+00  0.000E+00  1.04990E+03  6.516E-01  1.436E+01  5.028E-01  7.135E-01
   1    8    6     5     4    8.6341E+00  2.6076E-01   8.3733E+00  0.000E+00  0.000E+00  0.000E+00  1.04688E+03  6.346E-01  1.373E+01  3.432E-01  2.533E-01
   1    9    6     6     1    8.3733E+00  1.5854E+00   6.7880E+00  0.000E+00  0.000E+00  0.000E+00  1.04332E+03  5.968E-01  1.200E+01  6.000E-01  8.808E-01
   1   10    7     6     2    6.7880E+00  1.3518E+00   5.4361E+00  0.000E+00  0.000E+00  0.000E+00  1.03871E+03  5.244E-01  1.200E+01  6.000E-01  7.510E-01
   1   11    7     6     3    5.4361E+00  1.2065E+00   4.2296E+00  0.000E+00  0.000E+00  0.000E+00  1.03409E+03  4.555E-01  1.200E+01  6.000E-01  6.703E-01
   1   12    7     6     4    4.2296E+00  5.4629E-01   3.6833E+00  0.000E+00  0.000E+00  0.000E+00  1.02949E+03  4.040E-01  1.200E+01  6.000E-01  3.035E-01
   1   13    7     6     5    3.6833E+00 -6.6710E-01   4.3504E+00  0.000E+00  0.000E+00  0.000E+00  1.02632E+03  4.077E-01  1.200E+01  2.400E-01 -9.265E-01
   1   14    9     7     1    1.5000E+02  3.0328E+00   1.4697E+02  0.000E+00  0.000E+00  0.000E+00  1.03986E+03  2.283E+00  5.527E+01  5.591E+00  1.808E-01
   1   13    8     7     2    1.4697E+02  4.0637E+00   1.4290E+02  0.000E+00  0.000E+00  0.000E+00  1.03476E+03  2.264E+00  5.519E+01  6.140E+00  2.206E-01
   1   13    7     7     3    1.4290E+02  3.1635E+00   1.3974E+02  0.000E+00  0.000E+00  0.000E+00  1.02966E+03  2.245E+00  5.510E+01  5.572E+00  1.893E-01
   1   13    6     8     1    1.4409E+02  1.5102E+00   1.4258E+02  0.000E+00  0.000E+00  0.000E+00  1.02464E+03  2.769E+00  4.015E+01  4.092E+00  1.230E-01
   1   13    5     8     2    1.4258E+02 -1.2396E+00   1.4382E+02  0.000E+00  0.000E+00  0.000E+00  1.01839E+03  2.768E+00  4.014E+01  4.090E+00 -1.010E-01
   1   13    4     8     3    1.4382E+02 -2.9826E+00   1.4680E+02  0.000E+00  0.000E+00  0.000E+00  1.01216E+03  2.783E+00  4.036E+01  4.113E+00 -2.417E-01
   1   13    3     8     4    1.4680E+02 -3.1056E+00   1.4991E+02  0.000E+00  0.000E+00  0.000E+00  1.00593E+03  2.805E+00  4.068E+01  4.145E+00 -2.497E-01
   1   13    2     8     5    1.4991E+02 -1.1762E+00   1.5108E+02  0.000E+00  0.000E+00  0.000E+00  9.99695E+02  2.820E+00  4.089E+01  4.167E+00 -9.408E-02
   1   13    1     8     6    1.5108E+02  4.5612E-01   1.5063E+02  0.000E+00  0.000E+00  0.000E+00  9.94698E+02  2.823E+00  4.093E+01  2.503E+00  6.075E-02



1
              HEAD IN LAYER   1 AT END OF TIME STEP   1 IN STRESS PERIOD    1
  ---------------------------------------------------------------------------

           1       2       3       4       5       6       7       8       9      10
 ...................................................................................
   1  1092.89 1089.40 6999.00 6999.00 6999.00 6999.00 6999.00 6999.00 6999.00 6999.00
   2  1089.90 1086.71 1081.41 6999.00 6999.00 1072.27 1071.48 1071.08 6999.00 6999.00
   3  6999.00 1079.40 1077.52 1073.59 1072.50 1070.60 1069.12 1068.33 6999.00 6999.00
   4  1069.09 1070.68 1070.19 1066.97 1065.42 1063.60 1063.89 1065.91 1066.09 6999.00
   5  1064.89 1063.90 1062.85 1061.15 1060.50 1060.70 1060.19 1062.01 1065.69 1068.10
   6  1059.80 1058.29 1056.94 1054.27 1054.34 1056.59 1057.16 1059.09 1061.90 1065.60
   7  1056.10 1052.99 1051.42 1048.80 1049.10 1051.52 1053.15 1055.48 1056.50 6999.00
   8  6999.00 1046.29 1045.44 1043.08 1043.57 1046.12 1047.76 1049.89 1050.40 6999.00
   9  6999.00 1039.08 1038.85 1037.09 1037.86 1040.68 1041.56 1042.89 1044.00 6999.00
  10  6999.00 1031.09 1031.59 1031.16 1032.39 1035.11 1036.45 1037.60 1039.30 1041.60
  11  6999.00 1021.40 1023.06 1026.51 1028.40 1030.42 1032.08 1033.59 1035.70 6999.00
  12  1001.20 1009.21 1014.50 1019.56 1023.07 1026.18 1028.58 1030.40 1034.30 6999.00
  13   994.52  999.98 1006.68 1012.88 1018.70 1024.28 1029.10 1034.10 1036.10 6999.00
  14  6999.00 1004.00 1008.99 1013.70 1018.90 1024.01 1029.50 1035.10 1039.32 6999.00
  15  6999.00 6999.00 1011.90 1015.10 1019.10 1022.40 6999.00 6999.00 6999.00 6999.00
1
  VOLUMETRIC BUDGET FOR ENTIRE MODEL AT END OF TIME STEP    1, STRESS PERIOD   1
  ------------------------------------------------------------------------------

     CUMULATIVE VOLUMES      L**3       RATES FOR THIS TIME STEP      L**3/T
     ------------------                 ------------------------

           IN:                                      IN:
           ---                                      ---
             STORAGE =   132197736.0000               STORAGE =          97.5145
       CONSTANT HEAD =           0.0000         CONSTANT HEAD =           0.0000
               WELLS =           0.0000                 WELLS =           0.0000
                  ET =           0.0000                    ET =           0.0000
     HEAD DEP BOUNDS =      292535.1250       HEAD DEP BOUNDS =           0.2158
            RECHARGE =     2431737.2500              RECHARGE =           1.7937
      STREAM LEAKAGE =    59376328.0000        STREAM LEAKAGE =          43.7984

            TOTAL IN =   194298336.0000              TOTAL IN =         143.3225

          OUT:                                     OUT:
          ----                                     ----
             STORAGE =      729950.5000               STORAGE =           0.5384
       CONSTANT HEAD =           0.0000         CONSTANT HEAD =           0.0000
               WELLS =   135567232.0000                 WELLS =         100.0000
                  ET =    44907516.0000                    ET =          33.1256
     HEAD DEP BOUNDS =      335655.1250       HEAD DEP BOUNDS =           0.2476
            RECHARGE =           0.0000              RECHARGE =           0.0000
      STREAM LEAKAGE =    12779262.0000        STREAM LEAKAGE =           9.4265

           TOTAL OUT =   194319616.0000             TOTAL OUT =         143.3382

            IN - OUT =      -21280.0000              IN - OUT =      -1.5686E-02

 PERCENT DISCREPANCY =          -0.01     PERCENT DISCREPANCY =          -0.01






         TIME SUMMARY AT END OF TIME STEP    1 IN STRESS PERIOD    1
                    SECONDS     MINUTES      HOURS       DAYS        YEARS
                    -----------------------------------------------------------
   TIME STEP LENGTH 1.35567E+06  22595.      376.58      15.691     4.29587E-02
 STRESS PERIOD TIME 1.35567E+06  22595.      376.58      15.691     4.29587E-02
         TOTAL TIME 1.35567E+06  22595.      376.58      15.691     4.29587E-02
1
 
 SOLVING FOR HEAD 
     6 ITERATIONS FOR TIME STEP   2 IN STRESS PERIOD    1

 MAXIMUM HEAD CHANGE FOR EACH ITERATION:

    HEAD CHANGE   HEAD CHANGE   HEAD CHANGE   HEAD CHANGE   HEAD CHANGE
  LAYER,ROW,COL LAYER,ROW,COL LAYER,ROW,COL LAYER,ROW,COL LAYER,ROW,COL
 ----------------------------------------------------------------------
     -1.866       -0.4286       -0.8996E-01   -0.1848E-01   -0.3704E-02
  (  1,  8,  4) (  1,  8,  4) (  1,  8,  4) (  1,  8,  4) (  1,  8,  4)
    -0.7246E-03
  (  1,  8,  4)


 NO OUTPUT CONTROL FOR STRESS PERIOD    1   TIME STEP    2
 
 SOLVING FOR HEAD 
     6 ITERATIONS FOR TIME STEP   3 IN STRESS PERIOD    1

 MAXIMUM HEAD CHANGE FOR EACH ITERATION:

    HEAD CHANGE   HEAD CHANGE   HEAD CHANGE   HEAD CHANGE   HEAD CHANGE
  LAYER,ROW,COL LAYER,ROW,COL LAYER,ROW,COL LAYER,ROW,COL LAYER,ROW,COL
 ----------------------------------------------------------------------
     -1.819       -0.4241       -0.9008E-01   -0.1861E-01   -0.3751E-02
  (  1,  8,  4) (  1,  8,  4) (  1,  8,  4) (  1,  8,  4) (  1,  8,  4)
    -0.7334E-03
  (  1,  8,  4)


 NO OUTPUT CONTROL FOR STRESS PERIOD    1   TIME STEP    3
 
 SOLVING FOR HEAD 
     6 ITERATIONS FOR TIME STEP   4 IN STRESS PERIOD    1

 MAXIMUM HEAD CHANGE FOR EACH ITERATION:

    HEAD CHANGE   HEAD CHANGE   HEAD CHANGE   HEAD CHANGE   HEAD CHANGE
  LAYER,ROW,COL LAYER,ROW,COL LAYER,ROW,COL LAYER,ROW,COL LAYER,ROW,COL
 ----------------------------------------------------------------------
     -1.750       -0.4169       -0.8959E-01   -0.1869E-01   -0.3779E-02
  (  1,  8,  4) (  1,  8,  4) (  1,  8,  4) (  1,  8,  4) (  1,  8,  4)
    -0.7389E-03
  (  1,  8,  4)


 NO OUTPUT CONTROL FOR STRESS PERIOD    1   TIME STEP    4
 
 SOLVING FOR HEAD 
     6 ITERATIONS FOR TIME STEP   5 IN STRESS PERIOD    1

 MAXIMUM HEAD CHANGE FOR EACH ITERATION:

    HEAD CHANGE   HEAD CHANGE   HEAD CHANGE   HEAD CHANGE   HEAD CHANGE
  LAYER,ROW,COL LAYER,ROW,COL LAYER,ROW,COL LAYER,ROW,COL LAYER,ROW,COL
 ----------------------------------------------------------------------
     -1.671       -0.4089       -0.8933E-01   -0.1877E-01   -0.3812E-02
  (  1,  8,  4) (  1,  8,  4) (  1,  8,  4) (  1,  8,  4) (  1,  8,  4)
    -0.7416E-03
  (  1,  8,  4)


 OUTPUT CONTROL FOR STRESS PERIOD    1   TIME STEP    5
    PRINT BUDGET
    PRINT HEAD FOR ALL LAYERS
    SAVE BUDGET

            WELLS   PERIOD    1   STEP   5
 WELL      1   LAYER   1   ROW     6   COL     4   RATE   -10.00000    
 WELL      2   LAYER   1   ROW     6   COL     5   RATE   -10.00000    
 WELL      3   LAYER   1   ROW     7   COL     4   RATE   -10.00000    
 WELL      4   LAYER   1   ROW     7   COL     5   RATE   -10.00000    
 WELL      5   LAYER   1   ROW     8   COL     4   RATE   -10.00000    
 WELL      6   LAYER   1   ROW     8   COL     5   RATE   -10.00000    
 WELL      7   LAYER   1   ROW     9   COL     4   RATE   -10.00000    
 WELL      8   LAYER   1   ROW     9   COL     5   RATE   -10.00000    
 WELL      9   LAYER   1   ROW    10   COL     4   RATE   -10.00000    
 WELL     10   LAYER   1   ROW    10   COL     5   RATE   -10.00000    
 UBUDSV SAVING "              ET" ON UNIT 59 AT TIME STEP  5, STRESS PERIOD    1

  HEAD DEP BOUNDS   PERIOD    1   STEP   5
 BOUNDARY      1   LAYER   1   ROW    13   COL     1   RATE   -0.247358    
 BOUNDARY      2   LAYER   1   ROW    14   COL     9   RATE    0.215276    



 STREAM LISTING     PERIOD      1   STEP        5

 LAYER ROW COL. STREAM  RCH.  FLOW INTO     FLOW TO   FLOW OUT OF   OVRLND.     DIRECT     STREAM       STREAM     STREAM     STREAM   STREAMBED  STREAMBED
                SEG.NO.  NO.  STRM. RCH.    AQUIFER    STRM. RCH.    RUNOFF     PRECIP       ET          HEAD       DEPTH      WIDTH   CONDCTNC.   GRADIENT

   1    1    1     1     1    2.5000E+01  7.9132E-01   2.4209E+01  0.000E+00  0.000E+00  0.000E+00  1.09422E+03  1.174E+00  1.298E+01  5.843E-01  4.515E-01
   1    2    2     1     2    2.4209E+01  2.1898E+00   2.2019E+01  0.000E+00  0.000E+00  0.000E+00  1.08921E+03  1.151E+00  1.268E+01  8.875E-01  8.225E-01
   1    3    3     1     3    2.2019E+01  2.9878E+00   1.9031E+01  0.000E+00  0.000E+00  0.000E+00  1.08353E+03  1.109E+00  1.212E+01  7.271E-01  1.370E+00
   1    3    4     1     4    1.9031E+01  2.5503E+00   1.6481E+01  0.000E+00  0.000E+00  0.000E+00  1.07847E+03  1.063E+00  1.131E+01  6.277E-01  1.354E+00
   1    4    5     2     1    6.4808E+00  2.7041E+00   3.7767E+00  0.000E+00  0.000E+00  0.000E+00  1.07240E+03  4.668E-01  1.200E+01  7.800E-01  1.156E+00
   1    5    6     2     2    3.7767E+00  1.9940E+00   1.7827E+00  0.000E+00  0.000E+00  0.000E+00  1.06683E+03  3.233E-01  1.200E+01  6.000E-01  1.108E+00
   1    6    6     2     3    1.7827E+00  1.7827E+00   0.0000E+00  0.000E+00  0.000E+00  0.000E+00  1.06185E+03  5.572E-02  1.200E+01  6.000E-01  1.019E+00
   1    7    6     2     4    0.0000E+00  0.0000E+00   0.0000E+00  0.000E+00  0.000E+00  0.000E+00  1.05708E+03  0.000E+00  1.200E+01  6.000E-01  1.000E+00
   1    8    6     2     5    0.0000E+00  0.0000E+00   0.0000E+00  0.000E+00  0.000E+00  0.000E+00  1.05236E+03  0.000E+00  1.200E+01  6.000E-01  1.000E+00
   1    3    5     3     1    1.0000E+01  2.3268E+00   7.6732E+00  0.000E+00  0.000E+00  0.000E+00  1.07555E+03  1.909E+00  9.636E+00  7.227E-01  1.610E+00
   1    3    6     3     2    7.6732E+00  1.4071E+00   6.2661E+00  0.000E+00  0.000E+00  0.000E+00  1.07264E+03  1.727E+00  8.909E+00  6.682E-01  1.053E+00
   1    3    7     3     3    6.2661E+00  4.0797E-01   5.8581E+00  0.000E+00  0.000E+00  0.000E+00  1.06987E+03  1.555E+00  8.218E+00  5.547E-01  3.677E-01
   1    4    8     3     4    5.8581E+00  6.2142E-01   5.2367E+00  0.000E+00  0.000E+00  0.000E+00  1.06682E+03  1.364E+00  7.455E+00  6.709E-01  4.631E-01
   1    5    8     3     5    5.2367E+00  8.7788E-01   4.3589E+00  0.000E+00  0.000E+00  0.000E+00  1.06362E+03  1.164E+00  6.655E+00  4.991E-01  8.795E-01
   1    6    8     3     6    4.3589E+00  5.0294E-01   3.8559E+00  0.000E+00  0.000E+00  0.000E+00  1.06158E+03  1.036E+00  6.145E+00  1.844E-01  1.364E+00
   1    5   10     4     1    1.0000E+01  9.0525E-01   9.0947E+00  0.000E+00  0.000E+00  0.000E+00  1.07835E+03  6.210E-01  1.000E+01  2.500E-01  1.207E+00
   1    5    9     4     2    9.0947E+00  1.7835E+00   7.3113E+00  0.000E+00  0.000E+00  0.000E+00  1.07148E+03  5.670E-01  1.000E+01  5.000E-01  1.189E+00
   1    6    8     4     3    7.3113E+00  1.2257E+00   6.0855E+00  0.000E+00  0.000E+00  0.000E+00  1.06368E+03  5.021E-01  1.000E+01  3.500E-01  1.167E+00
   1    6    8     5     1    9.9415E+00 -1.1028E-01   1.0052E+01  0.000E+00  0.000E+00  0.000E+00  1.05867E+03  6.715E-01  1.513E+01  6.050E-01 -6.076E-02
   1    7    7     5     2    1.0052E+01  1.4256E+00   8.6262E+00  0.000E+00  0.000E+00  0.000E+00  1.05416E+03  6.558E-01  1.452E+01  7.260E-01  6.545E-01
   1    8    7     5     3    8.6262E+00  1.4859E+00   7.1402E+00  0.000E+00  0.000E+00  0.000E+00  1.04987E+03  6.180E-01  1.312E+01  4.591E-01  1.079E+00
   1    8    6     5     4    7.1402E+00  1.0568E+00   6.0835E+00  0.000E+00  0.000E+00  0.000E+00  1.04683E+03  5.811E-01  1.180E+01  2.951E-01  1.194E+00
   1    9    6     6     1    6.0835E+00  2.0804E+00   4.0031E+00  0.000E+00  0.000E+00  0.000E+00  1.04319E+03  4.673E-01  1.200E+01  6.000E-01  1.156E+00
   1   10    7     6     2    4.0031E+00  1.7576E+00   2.2454E+00  0.000E+00  0.000E+00  0.000E+00  1.03853E+03  3.506E-01  1.200E+01  6.000E-01  9.765E-01
   1   11    7     6     3    2.2454E+00  1.3497E+00   8.9571E-01  0.000E+00  0.000E+00  0.000E+00  1.03387E+03  2.321E-01  1.200E+01  6.000E-01  7.499E-01
   1   12    7     6     4    8.9571E-01  5.1707E-01   3.7864E-01  0.000E+00  0.000E+00  0.000E+00  1.02923E+03  1.351E-01  1.200E+01  6.000E-01  2.873E-01
   1   13    7     6     5    3.7864E-01 -7.2230E-01   1.1009E+00  0.000E+00  0.000E+00  0.000E+00  1.02606E+03  1.478E-01  1.200E+01  2.400E-01 -1.003E+00
   1   14    9     7     1    1.5000E+02  2.9589E+00   1.4704E+02  0.000E+00  0.000E+00  0.000E+00  1.03986E+03  2.283E+00  5.528E+01  5.591E+00  1.764E-01
   1   13    8     7     2    1.4704E+02  4.0689E+00   1.4297E+02  0.000E+00  0.000E+00  0.000E+00  1.03476E+03  2.265E+00  5.519E+01  6.140E+00  2.209E-01
   1   13    7     7     3    1.4297E+02  3.3294E+00   1.3964E+02  0.000E+00  0.000E+00  0.000E+00  1.02966E+03  2.245E+00  5.510E+01  5.572E+00  1.992E-01
   1   13    6     8     1    1.4074E+02  1.7407E+00   1.3900E+02  0.000E+00  0.000E+00  0.000E+00  1.02462E+03  2.744E+00  3.979E+01  4.054E+00  1.431E-01
   1   13    5     8     2    1.3900E+02 -8.7968E-01   1.3988E+02  0.000E+00  0.000E+00  0.000E+00  1.01837E+03  2.741E+00  3.974E+01  4.050E+00 -7.241E-02
   1   13    4     8     3    1.3988E+02 -2.6171E+00   1.4250E+02  0.000E+00  0.000E+00  0.000E+00  1.01213E+03  2.754E+00  3.993E+01  4.069E+00 -2.144E-01
   1   13    3     8     4    1.4250E+02 -2.9505E+00   1.4545E+02  0.000E+00  0.000E+00  0.000E+00  1.00590E+03  2.774E+00  4.022E+01  4.099E+00 -2.400E-01
   1   13    2     8     5    1.4545E+02 -1.1268E+00   1.4658E+02  0.000E+00  0.000E+00  0.000E+00  9.99664E+02  2.789E+00  4.043E+01  4.120E+00 -9.116E-02
   1   13    1     8     6    1.4658E+02  3.8794E-01   1.4619E+02  0.000E+00  0.000E+00  0.000E+00  9.94666E+02  2.791E+00  4.047E+01  2.475E+00  5.226E-02



1
              HEAD IN LAYER   1 AT END OF TIME STEP   5 IN STRESS PERIOD    1
  ---------------------------------------------------------------------------

           1       2       3       4       5       6       7       8       9      10
 ...................................................................................
   1  1092.87 1089.42 6999.00 6999.00 6999.00 6999.00 6999.00 6999.00 6999.00 6999.00
   2  1089.89 1086.74 1081.42 6999.00 6999.00 1072.13 1071.37 1070.99 6999.00 6999.00
   3  6999.00 1079.40 1077.44 1073.29 1072.33 1070.53 1069.14 1068.41 6999.00 6999.00
   4  1069.01 1070.57 1069.81 1065.94 1064.42 1063.00 1063.67 1065.89 1066.04 6999.00
   5  1064.84 1063.71 1061.67 1058.19 1057.97 1059.39 1059.66 1061.86 1065.64 1068.10
   6  1059.76 1057.83 1054.16 1047.44 1048.49 1054.04 1056.29 1058.85 1061.87 1065.59
   7  1056.07 1052.41 1047.97 1040.14 1041.73 1048.29 1052.19 1055.15 1056.46 6999.00
   8  6999.00 1045.75 1041.99 1033.85 1035.83 1042.92 1046.63 1049.64 1050.39 6999.00
   9  6999.00 1038.57 1035.63 1028.28 1030.62 1037.66 1040.42 1042.66 1044.00 6999.00
  10  6999.00 1030.73 1029.19 1024.24 1026.70 1032.65 1035.60 1037.44 1039.29 1041.59
  11  6999.00 1021.28 1022.13 1023.80 1026.02 1029.21 1031.62 1033.48 1035.70 6999.00
  12  1001.18 1009.18 1014.22 1018.78 1022.32 1025.73 1028.36 1030.35 1034.29 6999.00
  13   994.51  999.94 1006.62 1012.77 1018.58 1024.19 1029.07 1034.10 1036.12 6999.00
  14  6999.00 1004.00 1008.97 1013.69 1018.87 1024.01 1029.48 1035.10 1039.33 6999.00
  15  6999.00 6999.00 1011.91 1015.10 1019.11 1022.39 6999.00 6999.00 6999.00 6999.00
1
  VOLUMETRIC BUDGET FOR ENTIRE MODEL AT END OF TIME STEP    5, STRESS PERIOD   1
  ------------------------------------------------------------------------------

     CUMULATIVE VOLUMES      L**3       RATES FOR THIS TIME STEP      L**3/T
     ------------------                 ------------------------

           IN:                                      IN:
           ---                                      ---
             STORAGE =   762358144.0000               STORAGE =          87.3575
       CONSTANT HEAD =           0.0000         CONSTANT HEAD =           0.0000
               WELLS =           0.0000                 WELLS =           0.0000
                  ET =           0.0000                    ET =           0.0000
     HEAD DEP BOUNDS =     1782862.5000       HEAD DEP BOUNDS =           0.2153
            RECHARGE =    14845998.0000              RECHARGE =           1.7937
      STREAM LEAKAGE =   377230400.0000        STREAM LEAKAGE =          47.2175

            TOTAL IN =  1156217344.0000              TOTAL IN =         136.5840

          OUT:                                     OUT:
          ----                                     ----
             STORAGE =     1653213.2500               STORAGE =       4.9356E-02
       CONSTANT HEAD =           0.0000         CONSTANT HEAD =           0.0000
               WELLS =   827651584.0000                 WELLS =         100.0000
                  ET =   250986512.0000                    ET =          27.9007
     HEAD DEP BOUNDS =     2049515.7500       HEAD DEP BOUNDS =           0.2474
            RECHARGE =           0.0000              RECHARGE =           0.0000
      STREAM LEAKAGE =    74022840.0000        STREAM LEAKAGE =           8.4067

           TOTAL OUT =  1156363776.0000             TOTAL OUT =         136.6040

            IN - OUT =     -146432.0000              IN - OUT =      -2.0050E-02

 PERCENT DISCREPANCY =          -0.01     PERCENT DISCREPANCY =          -0.01






         TIME SUMMARY AT END OF TIME STEP    5 IN STRESS PERIOD    1
                    SECONDS     MINUTES      HOURS       DAYS        YEARS
                    -----------------------------------------------------------
   TIME STEP LENGTH 1.98484E+06  33081.      551.34      22.973     6.28958E-02
 STRESS PERIOD TIME 8.27652E+06 1.37942E+05  2299.0      95.793     0.26227    
         TOTAL TIME 8.27652E+06 1.37942E+05  2299.0      95.793     0.26227    
1
 
 SOLVING FOR HEAD 
     7 ITERATIONS FOR TIME STEP   6 IN STRESS PERIOD    1

 MAXIMUM HEAD CHANGE FOR EACH ITERATION:

    HEAD CHANGE   HEAD CHANGE   HEAD CHANGE   HEAD CHANGE   HEAD CHANGE
  LAYER,ROW,COL LAYER,ROW,COL LAYER,ROW,COL LAYER,ROW,COL LAYER,ROW,COL
 ----------------------------------------------------------------------
     -1.592       -0.4016       -0.8949E-01   -0.1897E-01   -0.6240E-02
  (  1,  8,  4) (  1,  8,  4) (  1,  8,  4) (  1,  8,  4) (  1, 12,  7)
    -0.1844E-02   -0.4632E-03
  (  1, 12,  7) (  1, 12,  7)


 NO OUTPUT CONTROL FOR STRESS PERIOD    1   TIME STEP    6
 
 SOLVING FOR HEAD 
     7 ITERATIONS FOR TIME STEP   7 IN STRESS PERIOD    1

 MAXIMUM HEAD CHANGE FOR EACH ITERATION:

    HEAD CHANGE   HEAD CHANGE   HEAD CHANGE   HEAD CHANGE   HEAD CHANGE
  LAYER,ROW,COL LAYER,ROW,COL LAYER,ROW,COL LAYER,ROW,COL LAYER,ROW,COL
 ----------------------------------------------------------------------
     -1.517       -0.3965       -0.9028E-01   -0.1932E-01   -0.4947E-02
  (  1,  8,  4) (  1,  8,  4) (  1,  8,  4) (  1,  8,  4) (  1, 11,  7)
    -0.1323E-02   -0.3320E-03
  (  1, 11,  7) (  1, 11,  7)


 NO OUTPUT CONTROL FOR STRESS PERIOD    1   TIME STEP    7
 
 SOLVING FOR HEAD 
     7 ITERATIONS FOR TIME STEP   8 IN STRESS PERIOD    1

 MAXIMUM HEAD CHANGE FOR EACH ITERATION:

    HEAD CHANGE   HEAD CHANGE   HEAD CHANGE   HEAD CHANGE   HEAD CHANGE
  LAYER,ROW,COL LAYER,ROW,COL LAYER,ROW,COL LAYER,ROW,COL LAYER,ROW,COL
 ----------------------------------------------------------------------
     -1.450       -0.3941       -0.9229E-01   -0.2003E-01   -0.5999E-02
  (  1,  8,  4) (  1,  8,  4) (  1,  8,  5) (  1,  8,  5) (  1, 11,  7)
    -0.1563E-02   -0.4392E-03
  (  1, 11,  7) (  1, 11,  7)


 NO OUTPUT CONTROL FOR STRESS PERIOD    1   TIME STEP    8
 
 SOLVING FOR HEAD 
     7 ITERATIONS FOR TIME STEP   9 IN STRESS PERIOD    1

 MAXIMUM HEAD CHANGE FOR EACH ITERATION:

    HEAD CHANGE   HEAD CHANGE   HEAD CHANGE   HEAD CHANGE   HEAD CHANGE
  LAYER,ROW,COL LAYER,ROW,COL LAYER,ROW,COL LAYER,ROW,COL LAYER,ROW,COL
 ----------------------------------------------------------------------
     -1.392       -0.3949       -0.9658E-01   -0.2134E-01   -0.4563E-02
  (  1,  8,  4) (  1,  8,  4) (  1,  8,  5) (  1,  8,  5) (  1, 11,  7)
    -0.1095E-02   -0.3072E-03
  (  1, 11,  7) (  1, 11,  7)


 NO OUTPUT CONTROL FOR STRESS PERIOD    1   TIME STEP    9
 
 SOLVING FOR HEAD 
     7 ITERATIONS FOR TIME STEP  10 IN STRESS PERIOD    1

 MAXIMUM HEAD CHANGE FOR EACH ITERATION:

    HEAD CHANGE   HEAD CHANGE   HEAD CHANGE   HEAD CHANGE   HEAD CHANGE
  LAYER,ROW,COL LAYER,ROW,COL LAYER,ROW,COL LAYER,ROW,COL LAYER,ROW,COL
 ----------------------------------------------------------------------
     -1.343       -0.3992       -0.1032       -0.2296E-01   -0.5093E-02
  (  1,  8,  4) (  1,  8,  4) (  1,  8,  5) (  1,  8,  5) (  1, 10,  7)
    -0.1183E-02   -0.3306E-03
  (  1, 10,  7) (  1, 10,  7)


 OUTPUT CONTROL FOR STRESS PERIOD    1   TIME STEP   10
    PRINT BUDGET
    PRINT HEAD FOR ALL LAYERS
    SAVE BUDGET

            WELLS   PERIOD    1   STEP  10
 WELL      1   LAYER   1   ROW     6   COL     4   RATE   -10.00000    
 WELL      2   LAYER   1   ROW     6   COL     5   RATE   -10.00000    
 WELL      3   LAYER   1   ROW     7   COL     4   RATE   -10.00000    
 WELL      4   LAYER   1   ROW     7   COL     5   RATE   -10.00000    
 WELL      5   LAYER   1   ROW     8   COL     4   RATE   -10.00000    
 WELL      6   LAYER   1   ROW     8   COL     5   RATE   -10.00000    
 WELL      7   LAYER   1   ROW     9   COL     4   RATE   -10.00000    
 WELL      8   LAYER   1   ROW     9   COL     5   RATE   -10.00000    
 WELL      9   LAYER   1   ROW    10   COL     4   RATE   -10.00000    
 WELL     10   LAYER   1   ROW    10   COL     5   RATE   -10.00000    
 UBUDSV SAVING "              ET" ON UNIT 59 AT TIME STEP 10, STRESS PERIOD    1

  HEAD DEP BOUNDS   PERIOD    1   STEP  10
 BOUNDARY      1   LAYER   1   ROW    13   COL     1   RATE   -0.245871    
 BOUNDARY      2   LAYER   1   ROW    14   COL     9   RATE    0.215279    



 STREAM LISTING     PERIOD      1   STEP       10

 LAYER ROW COL. STREAM  RCH.  FLOW INTO     FLOW TO   FLOW OUT OF   OVRLND.     DIRECT     STREAM       STREAM     STREAM     STREAM   STREAMBED  STREAMBED
                SEG.NO.  NO.  STRM. RCH.    AQUIFER    STRM. RCH.    RUNOFF     PRECIP       ET          HEAD       DEPTH      WIDTH   CONDCTNC.   GRADIENT

   1    1    1     1     1    2.5000E+01  7.9806E-01   2.4202E+01  0.000E+00  0.000E+00  0.000E+00  1.09422E+03  1.174E+00  1.298E+01  5.842E-01  4.553E-01
   1    2    2     1     2    2.4202E+01  2.2510E+00   2.1951E+01  0.000E+00  0.000E+00  0.000E+00  1.08921E+03  1.151E+00  1.267E+01  8.869E-01  8.460E-01
   1    3    3     1     3    2.1951E+01  2.9833E+00   1.8968E+01  0.000E+00  0.000E+00  0.000E+00  1.08353E+03  1.108E+00  1.210E+01  7.262E-01  1.369E+00
   1    3    4     1     4    1.8968E+01  2.5453E+00   1.6422E+01  0.000E+00  0.000E+00  0.000E+00  1.07847E+03  1.062E+00  1.129E+01  6.266E-01  1.354E+00
   1    4    5     2     1    6.4223E+00  2.7017E+00   3.7207E+00  0.000E+00  0.000E+00  0.000E+00  1.07240E+03  4.637E-01  1.200E+01  7.800E-01  1.155E+00
   1    5    6     2     2    3.7207E+00  1.9916E+00   1.7290E+00  0.000E+00  0.000E+00  0.000E+00  1.06683E+03  3.194E-01  1.200E+01  6.000E-01  1.106E+00
   1    6    6     2     3    1.7290E+00  1.7290E+00   0.0000E+00  0.000E+00  0.000E+00  0.000E+00  1.06185E+03  5.470E-02  1.200E+01  6.000E-01  1.018E+00
   1    7    6     2     4    0.0000E+00  0.0000E+00   0.0000E+00  0.000E+00  0.000E+00  0.000E+00  1.05708E+03  0.000E+00  1.200E+01  6.000E-01  1.000E+00
   1    8    6     2     5    0.0000E+00  0.0000E+00   0.0000E+00  0.000E+00  0.000E+00  0.000E+00  1.05236E+03  0.000E+00  1.200E+01  6.000E-01  1.000E+00
   1    3    5     3     1    1.0000E+01  2.8252E+00   7.1748E+00  0.000E+00  0.000E+00  0.000E+00  1.07555E+03  1.909E+00  9.636E+00  7.227E-01  1.955E+00
   1    3    6     3     2    7.1748E+00  1.6934E+00   5.4814E+00  0.000E+00  0.000E+00  0.000E+00  1.07264E+03  1.727E+00  8.909E+00  6.682E-01  1.267E+00
   1    3    7     3     3    5.4814E+00  5.1492E-01   4.9665E+00  0.000E+00  0.000E+00  0.000E+00  1.06987E+03  1.555E+00  8.218E+00  5.547E-01  4.641E-01
   1    4    8     3     4    4.9665E+00  7.7294E-01   4.1935E+00  0.000E+00  0.000E+00  0.000E+00  1.06682E+03  1.364E+00  7.455E+00  6.709E-01  5.760E-01
   1    5    8     3     5    4.1935E+00  1.3355E+00   2.8580E+00  0.000E+00  0.000E+00  0.000E+00  1.06362E+03  1.164E+00  6.655E+00  4.991E-01  1.338E+00
   1    6    8     3     6    2.8580E+00  5.5980E-01   2.2982E+00  0.000E+00  0.000E+00  0.000E+00  1.06158E+03  1.036E+00  6.145E+00  1.844E-01  1.518E+00
   1    5   10     4     1    1.0000E+01  9.0525E-01   9.0947E+00  0.000E+00  0.000E+00  0.000E+00  1.07835E+03  6.210E-01  1.000E+01  2.500E-01  1.207E+00
   1    5    9     4     2    9.0947E+00  1.7835E+00   7.3113E+00  0.000E+00  0.000E+00  0.000E+00  1.07148E+03  5.670E-01  1.000E+01  5.000E-01  1.189E+00
   1    6    8     4     3    7.3113E+00  1.2257E+00   6.0855E+00  0.000E+00  0.000E+00  0.000E+00  1.06368E+03  5.021E-01  1.000E+01  3.500E-01  1.167E+00
   1    6    8     5     1    8.3837E+00  5.4233E-01   7.8414E+00  0.000E+00  0.000E+00  0.000E+00  1.05862E+03  6.242E-01  1.334E+01  5.338E-01  3.387E-01
   1    7    7     5     2    7.8414E+00  2.1462E+00   5.6952E+00  0.000E+00  0.000E+00  0.000E+00  1.05409E+03  5.859E-01  1.197E+01  5.985E-01  1.195E+00
   1    8    7     5     3    5.6952E+00  1.2441E+00   4.4512E+00  0.000E+00  0.000E+00  0.000E+00  1.04978E+03  5.297E-01  1.007E+01  3.525E-01  1.177E+00
   1    8    6     5     4    4.4512E+00  7.6940E-01   3.6818E+00  0.000E+00  0.000E+00  0.000E+00  1.04674E+03  4.902E-01  8.818E+00  2.204E-01  1.163E+00
   1    9    6     6     1    3.6818E+00  1.9921E+00   1.6896E+00  0.000E+00  0.000E+00  0.000E+00  1.04305E+03  3.202E-01  1.200E+01  6.000E-01  1.107E+00
   1   10    7     6     2    1.6896E+00  1.6896E+00   0.0000E+00  0.000E+00  0.000E+00  0.000E+00  1.03824E+03  5.456E-02  1.200E+01  6.000E-01  1.018E+00
   1   11    7     6     3    0.0000E+00  0.0000E+00   0.0000E+00  0.000E+00  0.000E+00  0.000E+00  1.03364E+03  0.000E+00  1.200E+01  6.000E-01  1.000E+00
   1   12    7     6     4    0.0000E+00  0.0000E+00   0.0000E+00  0.000E+00  0.000E+00  0.000E+00  1.02909E+03  0.000E+00  1.200E+01  6.000E-01  7.111E-01
   1   13    7     6     5    0.0000E+00 -7.0417E-01   7.0417E-01  0.000E+00  0.000E+00  0.000E+00  1.02600E+03  9.462E-02  1.200E+01  2.400E-01 -9.780E-01
   1   14    9     7     1    1.5000E+02  2.9594E+00   1.4704E+02  0.000E+00  0.000E+00  0.000E+00  1.03986E+03  2.283E+00  5.528E+01  5.591E+00  1.764E-01
   1   13    8     7     2    1.4704E+02  4.1698E+00   1.4287E+02  0.000E+00  0.000E+00  0.000E+00  1.03476E+03  2.264E+00  5.519E+01  6.140E+00  2.264E-01
   1   13    7     7     3    1.4287E+02  4.0321E+00   1.3884E+02  0.000E+00  0.000E+00  0.000E+00  1.02966E+03  2.242E+00  5.509E+01  5.571E+00  2.413E-01
   1   13    6     8     1    1.3954E+02  2.6115E+00   1.3693E+02  0.000E+00  0.000E+00  0.000E+00  1.02461E+03  2.732E+00  3.961E+01  4.037E+00  2.156E-01
   1   13    5     8     2    1.3693E+02  2.8060E-01   1.3665E+02  0.000E+00  0.000E+00  0.000E+00  1.01835E+03  2.721E+00  3.946E+01  4.021E+00  2.326E-02
   1   13    4     8     3    1.3665E+02 -1.5630E+00   1.3821E+02  0.000E+00  0.000E+00  0.000E+00  1.01210E+03  2.726E+00  3.953E+01  4.028E+00 -1.294E-01
   1   13    3     8     4    1.3821E+02 -2.4116E+00   1.4063E+02  0.000E+00  0.000E+00  0.000E+00  1.00587E+03  2.741E+00  3.974E+01  4.050E+00 -1.985E-01
   1   13    2     8     5    1.4063E+02 -1.0425E+00   1.4167E+02  0.000E+00  0.000E+00  0.000E+00  9.99628E+02  2.753E+00  3.992E+01  4.068E+00 -8.542E-02
   1   13    1     8     6    1.4167E+02  3.9185E-01   1.4128E+02  0.000E+00  0.000E+00  0.000E+00  9.94631E+02  2.756E+00  3.996E+01  2.443E+00  5.346E-02



1
              HEAD IN LAYER   1 AT END OF TIME STEP  10 IN STRESS PERIOD    1
  ---------------------------------------------------------------------------

           1       2       3       4       5       6       7       8       9      10
 ...................................................................................
   1  1092.86 1089.41 6999.00 6999.00 6999.00 6999.00 6999.00 6999.00 6999.00 6999.00
   2  1089.87 1086.67 1081.07 6999.00 6999.00 1071.86 1071.18 1070.85 6999.00 6999.00
   3  6999.00 1079.05 1076.48 1071.70 1071.54 1070.10 1068.94 1068.40 6999.00 6999.00
   4  1068.76 1069.84 1067.91 1062.93 1061.51 1060.67 1062.39 1065.67 1065.88 6999.00
   5  1064.47 1062.25 1058.00 1053.18 1053.41 1056.05 1057.56 1060.94 1065.26 1067.98
   6  1059.22 1055.48 1048.40 1040.13 1042.01 1049.40 1053.63 1057.61 1061.44 1065.50
   7  1055.43 1049.49 1040.76 1031.06 1033.80 1042.63 1049.09 1053.39 1056.03 6999.00
   8  6999.00 1042.61 1034.24 1023.98 1027.30 1036.65 1042.48 1047.94 1050.09 6999.00
   9  6999.00 1035.71 1028.43 1019.03 1022.67 1031.79 1036.40 1041.09 1043.77 6999.00
  10  6999.00 1028.60 1023.65 1016.96 1020.33 1027.97 1032.40 1036.13 1039.06 1041.56
  11  6999.00 1020.18 1019.13 1019.24 1021.87 1026.04 1028.98 1032.50 1035.52 6999.00
  12  1001.10 1008.76 1013.07 1016.80 1020.36 1024.14 1026.96 1029.95 1034.22 6999.00
  13   994.47  999.88 1006.46 1012.49 1018.28 1023.96 1028.94 1034.09 1036.12 6999.00
  14  6999.00 1003.99 1008.89 1013.58 1018.75 1023.93 1029.43 1035.09 1039.33 6999.00
  15  6999.00 6999.00 1011.90 1015.08 1019.10 1022.38 6999.00 6999.00 6999.00 6999.00
1
  VOLUMETRIC BUDGET FOR ENTIRE MODEL AT END OF TIME STEP   10, STRESS PERIOD   1
  ------------------------------------------------------------------------------

     CUMULATIVE VOLUMES      L**3       RATES FOR THIS TIME STEP      L**3/T
     ------------------                 ------------------------

           IN:                                      IN:
           ---                                      ---
             STORAGE =  1840155136.0000               STORAGE =          77.3951
       CONSTANT HEAD =           0.0000         CONSTANT HEAD =           0.0000
               WELLS =           0.0000                 WELLS =           0.0000
                  ET =           0.0000                    ET =           0.0000
     HEAD DEP BOUNDS =     4652315.0000       HEAD DEP BOUNDS =           0.2153
            RECHARGE =    38755632.0000              RECHARGE =           1.7937
      STREAM LEAKAGE =  1024299136.0000        STREAM LEAKAGE =          49.4452

            TOTAL IN =  2907862272.0000              TOTAL IN =         128.8494

          OUT:                                     OUT:
          ----                                     ----
             STORAGE =     1744137.2500               STORAGE =           0.0000
       CONSTANT HEAD =           0.0000         CONSTANT HEAD =           0.0000
               WELLS =  2160592896.0000                 WELLS =         100.0000
                  ET =   577561728.0000                    ET =          22.8855
     HEAD DEP BOUNDS =     5334268.0000       HEAD DEP BOUNDS =           0.2459
            RECHARGE =           0.0000              RECHARGE =           0.0000
      STREAM LEAKAGE =   162855264.0000        STREAM LEAKAGE =           5.7213

           TOTAL OUT =  2908088320.0000             TOTAL OUT =         128.8527

            IN - OUT =     -226048.0000              IN - OUT =      -3.2806E-03

 PERCENT DISCREPANCY =          -0.01     PERCENT DISCREPANCY =          -0.00






         TIME SUMMARY AT END OF TIME STEP   10 IN STRESS PERIOD    1
                    SECONDS     MINUTES      HOURS       DAYS        YEARS
                    -----------------------------------------------------------
   TIME STEP LENGTH 3.19660E+06  53277.      887.95      36.998     0.10129    
 STRESS PERIOD TIME 2.16059E+07 3.60099E+05  6001.6      250.07     0.68465    
         TOTAL TIME 2.16059E+07 3.60099E+05  6001.6      250.07     0.68465    
1
 
 SOLVING FOR HEAD 
     7 ITERATIONS FOR TIME STEP  11 IN STRESS PERIOD    1

 MAXIMUM HEAD CHANGE FOR EACH ITERATION:

    HEAD CHANGE   HEAD CHANGE   HEAD CHANGE   HEAD CHANGE   HEAD CHANGE
  LAYER,ROW,COL LAYER,ROW,COL LAYER,ROW,COL LAYER,ROW,COL LAYER,ROW,COL
 ----------------------------------------------------------------------
     -1.332       -0.4084       -0.1111       -0.2514E-01   -0.6436E-02
  (  1,  8,  3) (  1,  8,  5) (  1,  8,  5) (  1,  8,  5) (  1, 10,  7)
    -0.1532E-02   -0.4455E-03
  (  1, 10,  7) (  1, 10,  7)


 NO OUTPUT CONTROL FOR STRESS PERIOD    1   TIME STEP   11
 
 SOLVING FOR HEAD 
     7 ITERATIONS FOR TIME STEP  12 IN STRESS PERIOD    1

 MAXIMUM HEAD CHANGE FOR EACH ITERATION:

    HEAD CHANGE   HEAD CHANGE   HEAD CHANGE   HEAD CHANGE   HEAD CHANGE
  LAYER,ROW,COL LAYER,ROW,COL LAYER,ROW,COL LAYER,ROW,COL LAYER,ROW,COL
 ----------------------------------------------------------------------
     -1.351       -0.4264       -0.1201       -0.2765E-01   -0.6535E-02
  (  1,  8,  3) (  1,  8,  5) (  1,  8,  5) (  1,  8,  5) (  1, 10,  7)
    -0.1512E-02   -0.4340E-03
  (  1, 10,  7) (  1, 10,  7)


 NO OUTPUT CONTROL FOR STRESS PERIOD    1   TIME STEP   12
 
 SOLVING FOR HEAD 
     7 ITERATIONS FOR TIME STEP  13 IN STRESS PERIOD    1

 MAXIMUM HEAD CHANGE FOR EACH ITERATION:

    HEAD CHANGE   HEAD CHANGE   HEAD CHANGE   HEAD CHANGE   HEAD CHANGE
  LAYER,ROW,COL LAYER,ROW,COL LAYER,ROW,COL LAYER,ROW,COL LAYER,ROW,COL
 ----------------------------------------------------------------------
     -1.365       -0.4464       -0.1306       -0.3071E-01   -0.7466E-02
  (  1,  8,  3) (  1,  8,  5) (  1,  8,  5) (  1,  8,  5) (  1, 10,  7)
    -0.1766E-02   -0.5125E-03
  (  1, 10,  7) (  1, 10,  7)


 OUTPUT CONTROL FOR STRESS PERIOD    1   TIME STEP   13
    PRINT BUDGET
    PRINT HEAD FOR ALL LAYERS
    SAVE BUDGET

            WELLS   PERIOD    1   STEP  13
 WELL      1   LAYER   1   ROW     6   COL     4   RATE   -10.00000    
 WELL      2   LAYER   1   ROW     6   COL     5   RATE   -10.00000    
 WELL      3   LAYER   1   ROW     7   COL     4   RATE   -10.00000    
 WELL      4   LAYER   1   ROW     7   COL     5   RATE   -10.00000    
 WELL      5   LAYER   1   ROW     8   COL     4   RATE   -10.00000    
 WELL      6   LAYER   1   ROW     8   COL     5   RATE   -10.00000    
 WELL      7   LAYER   1   ROW     9   COL     4   RATE   -10.00000    
 WELL      8   LAYER   1   ROW     9   COL     5   RATE   -10.00000    
 WELL      9   LAYER   1   ROW    10   COL     4   RATE   -10.00000    
 WELL     10   LAYER   1   ROW    10   COL     5   RATE   -10.00000    
 UBUDSV SAVING "              ET" ON UNIT 59 AT TIME STEP 13, STRESS PERIOD    1

  HEAD DEP BOUNDS   PERIOD    1   STEP  13
 BOUNDARY      1   LAYER   1   ROW    13   COL     1   RATE   -0.244627    
 BOUNDARY      2   LAYER   1   ROW    14   COL     9   RATE    0.215324    



 STREAM LISTING     PERIOD      1   STEP       13

 LAYER ROW COL. STREAM  RCH.  FLOW INTO     FLOW TO   FLOW OUT OF   OVRLND.     DIRECT     STREAM       STREAM     STREAM     STREAM   STREAMBED  STREAMBED
                SEG.NO.  NO.  STRM. RCH.    AQUIFER    STRM. RCH.    RUNOFF     PRECIP       ET          HEAD       DEPTH      WIDTH   CONDCTNC.   GRADIENT

   1    1    1     1     1    2.5000E+01  8.0498E-01   2.4195E+01  0.000E+00  0.000E+00  0.000E+00  1.09422E+03  1.174E+00  1.298E+01  5.842E-01  4.593E-01
   1    2    2     1     2    2.4195E+01  2.4189E+00   2.1776E+01  0.000E+00  0.000E+00  0.000E+00  1.08921E+03  1.149E+00  1.265E+01  8.856E-01  9.104E-01
   1    3    3     1     3    2.1776E+01  2.9718E+00   1.8804E+01  0.000E+00  0.000E+00  0.000E+00  1.08352E+03  1.105E+00  1.207E+01  7.240E-01  1.368E+00
   1    3    4     1     4    1.8804E+01  2.5323E+00   1.6272E+01  0.000E+00  0.000E+00  0.000E+00  1.07847E+03  1.059E+00  1.124E+01  6.239E-01  1.353E+00
   1    4    5     2     1    6.2720E+00  2.6953E+00   3.5767E+00  0.000E+00  0.000E+00  0.000E+00  1.07239E+03  4.556E-01  1.200E+01  7.800E-01  1.152E+00
   1    5    6     2     2    3.5767E+00  1.9856E+00   1.5910E+00  0.000E+00  0.000E+00  0.000E+00  1.06682E+03  3.094E-01  1.200E+01  6.000E-01  1.103E+00
   1    6    6     2     3    1.5910E+00  1.5910E+00   0.0000E+00  0.000E+00  0.000E+00  0.000E+00  1.06184E+03  5.204E-02  1.200E+01  6.000E-01  1.017E+00
   1    7    6     2     4    0.0000E+00  0.0000E+00   0.0000E+00  0.000E+00  0.000E+00  0.000E+00  1.05708E+03  0.000E+00  1.200E+01  6.000E-01  1.000E+00
   1    8    6     2     5    0.0000E+00  0.0000E+00   0.0000E+00  0.000E+00  0.000E+00  0.000E+00  1.05236E+03  0.000E+00  1.200E+01  6.000E-01  1.000E+00
   1    3    5     3     1    1.0000E+01  2.8252E+00   7.1748E+00  0.000E+00  0.000E+00  0.000E+00  1.07555E+03  1.909E+00  9.636E+00  7.227E-01  1.955E+00
   1    3    6     3     2    7.1748E+00  2.0609E+00   5.1139E+00  0.000E+00  0.000E+00  0.000E+00  1.07264E+03  1.727E+00  8.909E+00  6.682E-01  1.542E+00
   1    3    7     3     3    5.1139E+00  6.6840E-01   4.4455E+00  0.000E+00  0.000E+00  0.000E+00  1.06987E+03  1.555E+00  8.218E+00  5.547E-01  6.025E-01
   1    4    8     3     4    4.4455E+00  9.9826E-01   3.4472E+00  0.000E+00  0.000E+00  0.000E+00  1.06682E+03  1.364E+00  7.455E+00  6.709E-01  7.440E-01
   1    5    8     3     5    3.4472E+00  1.5790E+00   1.8683E+00  0.000E+00  0.000E+00  0.000E+00  1.06362E+03  1.164E+00  6.655E+00  4.991E-01  1.582E+00
   1    6    8     3     6    1.8683E+00  5.5980E-01   1.3085E+00  0.000E+00  0.000E+00  0.000E+00  1.06158E+03  1.036E+00  6.145E+00  1.844E-01  1.518E+00
   1    5   10     4     1    1.0000E+01  9.0525E-01   9.0947E+00  0.000E+00  0.000E+00  0.000E+00  1.07835E+03  6.210E-01  1.000E+01  2.500E-01  1.207E+00
   1    5    9     4     2    9.0947E+00  1.7835E+00   7.3113E+00  0.000E+00  0.000E+00  0.000E+00  1.07148E+03  5.670E-01  1.000E+01  5.000E-01  1.189E+00
   1    6    8     4     3    7.3113E+00  1.2257E+00   6.0855E+00  0.000E+00  0.000E+00  0.000E+00  1.06368E+03  5.021E-01  1.000E+01  3.500E-01  1.167E+00
   1    6    8     5     1    7.3940E+00  1.2466E+00   6.1474E+00  0.000E+00  0.000E+00  0.000E+00  1.05859E+03  5.860E-01  1.197E+01  4.789E-01  8.676E-01
   1    7    7     5     2    6.1474E+00  1.8149E+00   4.3325E+00  0.000E+00  0.000E+00  0.000E+00  1.05404E+03  5.357E-01  1.027E+01  5.133E-01  1.179E+00
   1    8    7     5     3    4.3325E+00  1.0335E+00   3.2990E+00  0.000E+00  0.000E+00  0.000E+00  1.04973E+03  4.794E-01  8.487E+00  2.970E-01  1.160E+00
   1    8    6     5     4    3.2990E+00  6.2982E-01   2.6691E+00  0.000E+00  0.000E+00  0.000E+00  1.04669E+03  4.399E-01  7.324E+00  1.831E-01  1.147E+00
   1    9    6     6     1    2.6691E+00  1.9458E+00   7.2330E-01  0.000E+00  0.000E+00  0.000E+00  1.04297E+03  2.430E-01  1.200E+01  6.000E-01  1.081E+00
   1   10    7     6     2    7.2330E-01  7.2330E-01   0.0000E+00  0.000E+00  0.000E+00  0.000E+00  1.03821E+03  3.279E-02  1.200E+01  6.000E-01  1.011E+00
   1   11    7     6     3    0.0000E+00  0.0000E+00   0.0000E+00  0.000E+00  0.000E+00  0.000E+00  1.03364E+03  0.000E+00  1.200E+01  6.000E-01  1.000E+00
   1   12    7     6     4    0.0000E+00  0.0000E+00   0.0000E+00  0.000E+00  0.000E+00  0.000E+00  1.02909E+03  0.000E+00  1.200E+01  6.000E-01  1.000E+00
   1   13    7     6     5    0.0000E+00 -6.7862E-01   6.7862E-01  0.000E+00  0.000E+00  0.000E+00  1.02600E+03  9.254E-02  1.200E+01  2.400E-01 -9.425E-01
   1   14    9     7     1    1.5000E+02  2.9659E+00   1.4703E+02  0.000E+00  0.000E+00  0.000E+00  1.03986E+03  2.283E+00  5.528E+01  5.591E+00  1.768E-01
   1   13    8     7     2    1.4703E+02  4.2839E+00   1.4275E+02  0.000E+00  0.000E+00  0.000E+00  1.03476E+03  2.264E+00  5.519E+01  6.139E+00  2.326E-01
   1   13    7     7     3    1.4275E+02  4.6232E+00   1.3813E+02  0.000E+00  0.000E+00  0.000E+00  1.02966E+03  2.240E+00  5.508E+01  5.569E+00  2.767E-01
   1   13    6     8     1    1.3881E+02  3.3613E+00   1.3544E+02  0.000E+00  0.000E+00  0.000E+00  1.02460E+03  2.724E+00  3.949E+01  4.024E+00  2.784E-01
   1   13    5     8     2    1.3544E+02  1.1867E+00   1.3426E+02  0.000E+00  0.000E+00  0.000E+00  1.01833E+03  2.707E+00  3.925E+01  3.999E+00  9.891E-02
   1   13    4     8     3    1.3426E+02 -7.3591E-01   1.3499E+02  0.000E+00  0.000E+00  0.000E+00  1.01208E+03  2.705E+00  3.922E+01  3.997E+00 -6.138E-02
   1   13    3     8     4    1.3499E+02 -1.9082E+00   1.3690E+02  0.000E+00  0.000E+00  0.000E+00  1.00584E+03  2.715E+00  3.937E+01  4.011E+00 -1.586E-01
   1   13    2     8     5    1.3690E+02 -9.4292E-01   1.3784E+02  0.000E+00  0.000E+00  0.000E+00  9.99600E+02  2.725E+00  3.952E+01  4.027E+00 -7.805E-02
   1   13    1     8     6    1.3784E+02  3.9887E-01   1.3745E+02  0.000E+00  0.000E+00  0.000E+00  9.94602E+02  2.727E+00  3.955E+01  2.418E+00  5.498E-02



1
              HEAD IN LAYER   1 AT END OF TIME STEP  13 IN STRESS PERIOD    1
  ---------------------------------------------------------------------------

           1       2       3       4       5       6       7       8       9      10
 ...................................................................................
   1  1092.84 1089.35 6999.00 6999.00 6999.00 6999.00 6999.00 6999.00 6999.00 6999.00
   2  1089.83 1086.48 1080.36 6999.00 6999.00 1071.57 1070.99 1070.72 6999.00 6999.00
   3  6999.00 1078.34 1075.13 1069.86 1070.19 1069.55 1068.67 1068.24 6999.00 6999.00
   4  1068.26 1068.68 1065.86 1060.30 1058.87 1058.36 1060.86 1065.33 1065.60 6999.00
   5  1063.72 1060.37 1054.91 1049.66 1050.05 1053.16 1055.33 1059.66 1064.59 1067.65
   6  1058.19 1052.88 1044.27 1035.69 1037.86 1045.85 1050.93 1055.98 1060.64 1065.27
   7  1054.20 1046.30 1035.81 1025.90 1029.02 1038.50 1045.74 1051.09 1055.14 6999.00
   8  6999.00 1038.94 1028.86 1018.47 1022.23 1032.15 1038.58 1045.61 1049.40 6999.00
   9  6999.00 1032.26 1023.35 1013.83 1017.86 1027.48 1032.62 1038.88 1043.16 6999.00
  10  6999.00 1025.92 1019.58 1012.65 1016.28 1024.31 1029.05 1034.19 1038.50 1041.46
  11  6999.00 1018.59 1016.65 1016.25 1018.99 1023.42 1026.73 1031.13 1035.08 6999.00
  12  1000.95 1008.13 1011.99 1015.27 1018.87 1022.78 1025.80 1029.45 1034.04 6999.00
  13   994.44  999.83 1006.32 1012.26 1018.03 1023.76 1028.83 1034.07 1036.10 6999.00
  14  6999.00 1003.97 1008.80 1013.44 1018.61 1023.82 1029.36 1035.07 1039.33 6999.00
  15  6999.00 6999.00 1011.89 1015.05 1019.07 1022.35 6999.00 6999.00 6999.00 6999.00
1
  VOLUMETRIC BUDGET FOR ENTIRE MODEL AT END OF TIME STEP   13, STRESS PERIOD   1
  ------------------------------------------------------------------------------

     CUMULATIVE VOLUMES      L**3       RATES FOR THIS TIME STEP      L**3/T
     ------------------                 ------------------------

           IN:                                      IN:
           ---                                      ---
             STORAGE =  2693296896.0000               STORAGE =          71.4032
       CONSTANT HEAD =           0.0000         CONSTANT HEAD =           0.0000
               WELLS =           0.0000                 WELLS =           0.0000
                  ET =           0.0000                    ET =           0.0000
     HEAD DEP BOUNDS =     7158242.5000       HEAD DEP BOUNDS =           0.2153
            RECHARGE =    59632800.0000              RECHARGE =           1.7937
      STREAM LEAKAGE =  1618490880.0000        STREAM LEAKAGE =          51.8198

            TOTAL IN =  4378578944.0000              TOTAL IN =         125.2322

          OUT:                                     OUT:
          ----                                     ----
             STORAGE =     1744137.2500               STORAGE =           0.0000
       CONSTANT HEAD =           0.0000         CONSTANT HEAD =           0.0000
               WELLS =  3324476672.0000                 WELLS =         100.0000
                  ET =   826427328.0000                    ET =          20.7280
     HEAD DEP BOUNDS =     8186266.0000       HEAD DEP BOUNDS =           0.2446
            RECHARGE =           0.0000              RECHARGE =           0.0000
      STREAM LEAKAGE =   218034048.0000        STREAM LEAKAGE =           4.2657

           TOTAL OUT =  4378868736.0000             TOTAL OUT =         125.2384

            IN - OUT =     -289792.0000              IN - OUT =      -6.2027E-03

 PERCENT DISCREPANCY =          -0.01     PERCENT DISCREPANCY =          -0.00






         TIME SUMMARY AT END OF TIME STEP   13 IN STRESS PERIOD    1
                    SECONDS     MINUTES      HOURS       DAYS        YEARS
                    -----------------------------------------------------------
   TIME STEP LENGTH 4.25468E+06  70911.      1181.9      49.244     0.13482    
 STRESS PERIOD TIME 3.32448E+07 5.54079E+05  9234.7      384.78      1.0535    
         TOTAL TIME 3.32448E+07 5.54079E+05  9234.7      384.78      1.0535    
1
 
 SOLVING FOR HEAD 
     7 ITERATIONS FOR TIME STEP  14 IN STRESS PERIOD    1

 MAXIMUM HEAD CHANGE FOR EACH ITERATION:

    HEAD CHANGE   HEAD CHANGE   HEAD CHANGE   HEAD CHANGE   HEAD CHANGE
  LAYER,ROW,COL LAYER,ROW,COL LAYER,ROW,COL LAYER,ROW,COL LAYER,ROW,COL
 ----------------------------------------------------------------------
     -1.377       -0.4692       -0.1439       -0.3485E-01   -0.9737E-02
  (  1,  8,  3) (  1,  8,  5) (  1,  8,  5) (  1, 10,  7) (  1, 10,  7)
    -0.2304E-02   -0.7033E-03
  (  1, 10,  7) (  1, 10,  7)


 NO OUTPUT CONTROL FOR STRESS PERIOD    1   TIME STEP   14
 
 SOLVING FOR HEAD 
     7 ITERATIONS FOR TIME STEP  15 IN STRESS PERIOD    1

 MAXIMUM HEAD CHANGE FOR EACH ITERATION:

    HEAD CHANGE   HEAD CHANGE   HEAD CHANGE   HEAD CHANGE   HEAD CHANGE
  LAYER,ROW,COL LAYER,ROW,COL LAYER,ROW,COL LAYER,ROW,COL LAYER,ROW,COL
 ----------------------------------------------------------------------
     -1.389       -0.4942       -0.1559       -0.3831E-01   -0.8437E-02
  (  1,  8,  3) (  1,  8,  5) (  1,  8,  5) (  1,  8,  5) (  1,  8,  5)
    -0.1553E-02   -0.6182E-03
  (  1, 10,  7) (  1,  7,  5)


 OUTPUT CONTROL FOR STRESS PERIOD    1   TIME STEP   15
    PRINT BUDGET
    PRINT HEAD FOR ALL LAYERS
    SAVE BUDGET

            WELLS   PERIOD    1   STEP  15
 WELL      1   LAYER   1   ROW     6   COL     4   RATE   -10.00000    
 WELL      2   LAYER   1   ROW     6   COL     5   RATE   -10.00000    
 WELL      3   LAYER   1   ROW     7   COL     4   RATE   -10.00000    
 WELL      4   LAYER   1   ROW     7   COL     5   RATE   -10.00000    
 WELL      5   LAYER   1   ROW     8   COL     4   RATE   -10.00000    
 WELL      6   LAYER   1   ROW     8   COL     5   RATE   -10.00000    
 WELL      7   LAYER   1   ROW     9   COL     4   RATE   -10.00000    
 WELL      8   LAYER   1   ROW     9   COL     5   RATE   -10.00000    
 WELL      9   LAYER   1   ROW    10   COL     4   RATE   -10.00000    
 WELL     10   LAYER   1   ROW    10   COL     5   RATE   -10.00000    
 UBUDSV SAVING "              ET" ON UNIT 59 AT TIME STEP 15, STRESS PERIOD    1

  HEAD DEP BOUNDS   PERIOD    1   STEP  15
 BOUNDARY      1   LAYER   1   ROW    13   COL     1   RATE   -0.243602    
 BOUNDARY      2   LAYER   1   ROW    14   COL     9   RATE    0.215381    



 STREAM LISTING     PERIOD      1   STEP       15

 LAYER ROW COL. STREAM  RCH.  FLOW INTO     FLOW TO   FLOW OUT OF   OVRLND.     DIRECT     STREAM       STREAM     STREAM     STREAM   STREAMBED  STREAMBED
                SEG.NO.  NO.  STRM. RCH.    AQUIFER    STRM. RCH.    RUNOFF     PRECIP       ET          HEAD       DEPTH      WIDTH   CONDCTNC.   GRADIENT

   1    1    1     1     1    2.5000E+01  8.1656E-01   2.4183E+01  0.000E+00  0.000E+00  0.000E+00  1.09422E+03  1.174E+00  1.298E+01  5.841E-01  4.660E-01
   1    2    2     1     2    2.4183E+01  2.6192E+00   2.1564E+01  0.000E+00  0.000E+00  0.000E+00  1.08921E+03  1.148E+00  1.263E+01  8.840E-01  9.876E-01
   1    3    3     1     3    2.1564E+01  2.9578E+00   1.8606E+01  0.000E+00  0.000E+00  0.000E+00  1.08352E+03  1.101E+00  1.202E+01  7.212E-01  1.367E+00
   1    3    4     1     4    1.8606E+01  2.5166E+00   1.6090E+01  0.000E+00  0.000E+00  0.000E+00  1.07846E+03  1.056E+00  1.118E+01  6.205E-01  1.352E+00
   1    4    5     2     1    6.0898E+00  2.6876E+00   3.4023E+00  0.000E+00  0.000E+00  0.000E+00  1.07238E+03  4.456E-01  1.200E+01  7.800E-01  1.149E+00
   1    5    6     2     2    3.4023E+00  1.9782E+00   1.4241E+00  0.000E+00  0.000E+00  0.000E+00  1.06681E+03  2.970E-01  1.200E+01  6.000E-01  1.099E+00
   1    6    6     2     3    1.4241E+00  1.4241E+00   0.0000E+00  0.000E+00  0.000E+00  0.000E+00  1.06184E+03  4.869E-02  1.200E+01  6.000E-01  1.016E+00
   1    7    6     2     4    0.0000E+00  0.0000E+00   0.0000E+00  0.000E+00  0.000E+00  0.000E+00  1.05708E+03  0.000E+00  1.200E+01  6.000E-01  1.000E+00
   1    8    6     2     5    0.0000E+00  0.0000E+00   0.0000E+00  0.000E+00  0.000E+00  0.000E+00  1.05236E+03  0.000E+00  1.200E+01  6.000E-01  1.000E+00
   1    3    5     3     1    1.0000E+01  2.8252E+00   7.1748E+00  0.000E+00  0.000E+00  0.000E+00  1.07555E+03  1.909E+00  9.636E+00  7.227E-01  1.955E+00
   1    3    6     3     2    7.1748E+00  2.4213E+00   4.7535E+00  0.000E+00  0.000E+00  0.000E+00  1.07264E+03  1.727E+00  8.909E+00  6.682E-01  1.812E+00
   1    3    7     3     3    4.7535E+00  8.1858E-01   3.9350E+00  0.000E+00  0.000E+00  0.000E+00  1.06987E+03  1.555E+00  8.218E+00  5.547E-01  7.378E-01
   1    4    8     3     4    3.9350E+00  1.2389E+00   2.6960E+00  0.000E+00  0.000E+00  0.000E+00  1.06682E+03  1.364E+00  7.455E+00  6.709E-01  9.233E-01
   1    5    8     3     5    2.6960E+00  1.5790E+00   1.1171E+00  0.000E+00  0.000E+00  0.000E+00  1.06362E+03  1.164E+00  6.655E+00  4.991E-01  1.582E+00
   1    6    8     3     6    1.1171E+00  5.5980E-01   5.5727E-01  0.000E+00  0.000E+00  0.000E+00  1.06158E+03  1.036E+00  6.145E+00  1.844E-01  1.518E+00
   1    5   10     4     1    1.0000E+01  9.0525E-01   9.0947E+00  0.000E+00  0.000E+00  0.000E+00  1.07835E+03  6.210E-01  1.000E+01  2.500E-01  1.207E+00
   1    5    9     4     2    9.0947E+00  1.7835E+00   7.3113E+00  0.000E+00  0.000E+00  0.000E+00  1.07148E+03  5.670E-01  1.000E+01  5.000E-01  1.189E+00
   1    6    8     4     3    7.3113E+00  1.2257E+00   6.0855E+00  0.000E+00  0.000E+00  0.000E+00  1.06368E+03  5.021E-01  1.000E+01  3.500E-01  1.167E+00
   1    6    8     5     1    6.6428E+00  1.5623E+00   5.0805E+00  0.000E+00  0.000E+00  0.000E+00  1.05856E+03  5.571E-01  1.098E+01  4.392E-01  1.186E+00
   1    7    7     5     2    5.0805E+00  1.5919E+00   3.4886E+00  0.000E+00  0.000E+00  0.000E+00  1.05400E+03  4.992E-01  9.099E+00  4.549E-01  1.166E+00
   1    8    7     5     3    3.4886E+00  8.9271E-01   2.5959E+00  0.000E+00  0.000E+00  0.000E+00  1.04969E+03  4.428E-01  7.408E+00  2.593E-01  1.148E+00
   1    8    6     5     4    2.5959E+00  5.3682E-01   2.0591E+00  0.000E+00  0.000E+00  0.000E+00  1.04665E+03  4.033E-01  6.309E+00  1.577E-01  1.134E+00
   1    9    6     6     1    2.0591E+00  1.9126E+00   1.4644E-01  0.000E+00  0.000E+00  0.000E+00  1.04292E+03  1.877E-01  1.200E+01  6.000E-01  1.063E+00
   1   10    7     6     2    1.4644E-01  1.4644E-01   0.0000E+00  0.000E+00  0.000E+00  0.000E+00  1.03819E+03  1.258E-02  1.200E+01  6.000E-01  1.004E+00
   1   11    7     6     3    0.0000E+00  0.0000E+00   0.0000E+00  0.000E+00  0.000E+00  0.000E+00  1.03364E+03  0.000E+00  1.200E+01  6.000E-01  1.000E+00
   1   12    7     6     4    0.0000E+00  0.0000E+00   0.0000E+00  0.000E+00  0.000E+00  0.000E+00  1.02909E+03  0.000E+00  1.200E+01  6.000E-01  1.000E+00
   1   13    7     6     5    0.0000E+00 -6.5935E-01   6.5935E-01  0.000E+00  0.000E+00  0.000E+00  1.02600E+03  9.095E-02  1.200E+01  2.400E-01 -9.158E-01
   1   14    9     7     1    1.5000E+02  2.9741E+00   1.4703E+02  0.000E+00  0.000E+00  0.000E+00  1.03986E+03  2.283E+00  5.528E+01  5.591E+00  1.773E-01
   1   13    8     7     2    1.4703E+02  4.3798E+00   1.4265E+02  0.000E+00  0.000E+00  0.000E+00  1.03476E+03  2.264E+00  5.519E+01  6.139E+00  2.378E-01
   1   13    7     7     3    1.4265E+02  5.0685E+00   1.3758E+02  0.000E+00  0.000E+00  0.000E+00  1.02966E+03  2.238E+00  5.507E+01  5.569E+00  3.034E-01
   1   13    6     8     1    1.3824E+02  3.9131E+00   1.3432E+02  0.000E+00  0.000E+00  0.000E+00  1.02459E+03  2.717E+00  3.940E+01  4.015E+00  3.249E-01
   1   13    5     8     2    1.3432E+02  1.8385E+00   1.3249E+02  0.000E+00  0.000E+00  0.000E+00  1.01832E+03  2.696E+00  3.909E+01  3.983E+00  1.539E-01
   1   13    4     8     3    1.3249E+02 -1.3785E-01   1.3262E+02  0.000E+00  0.000E+00  0.000E+00  1.01206E+03  2.689E+00  3.899E+01  3.974E+00 -1.156E-02
   1   13    3     8     4    1.3262E+02 -1.5186E+00   1.3414E+02  0.000E+00  0.000E+00  0.000E+00  1.00582E+03  2.696E+00  3.908E+01  3.983E+00 -1.271E-01
   1   13    2     8     5    1.3414E+02 -8.5192E-01   1.3499E+02  0.000E+00  0.000E+00  0.000E+00  9.99579E+02  2.704E+00  3.921E+01  3.996E+00 -7.106E-02
   1   13    1     8     6    1.3499E+02  4.0921E-01   1.3458E+02  0.000E+00  0.000E+00  0.000E+00  9.94581E+02  2.706E+00  3.924E+01  2.399E+00  5.685E-02



1
              HEAD IN LAYER   1 AT END OF TIME STEP  15 IN STRESS PERIOD    1
  ---------------------------------------------------------------------------

           1       2       3       4       5       6       7       8       9      10
 ...................................................................................
   1  1092.82 1089.26 6999.00 6999.00 6999.00 6999.00 6999.00 6999.00 6999.00 6999.00
   2  1089.75 1086.24 1079.58 6999.00 6999.00 1071.27 1070.79 1070.58 6999.00 6999.00
   3  6999.00 1077.55 1073.81 1068.19 1068.72 1069.01 1068.40 1068.04 6999.00 6999.00
   4  1067.61 1067.48 1064.08 1058.16 1056.70 1056.37 1059.47 1064.97 1065.19 6999.00
   5  1062.81 1058.63 1052.49 1047.02 1047.47 1050.81 1053.36 1058.24 1063.71 1067.16
   6  1056.99 1050.61 1041.24 1032.54 1034.83 1043.09 1048.63 1054.32 1059.67 1064.91
   7  1052.80 1043.59 1032.31 1022.37 1025.66 1035.42 1043.01 1048.98 1054.07 6999.00
   8  6999.00 1035.77 1025.08 1014.77 1018.72 1028.87 1035.53 1043.43 1048.49 6999.00
   9  6999.00 1029.22 1019.76 1010.32 1014.54 1024.35 1029.66 1036.79 1042.36 6999.00
  10  6999.00 1023.49 1016.65 1009.73 1013.46 1021.61 1026.36 1032.35 1037.79 1041.27
  11  6999.00 1017.07 1014.80 1014.18 1016.96 1021.50 1025.01 1029.89 1034.52 6999.00
  12  1000.77 1007.54 1011.15 1014.17 1017.80 1021.78 1024.93 1029.02 1033.82 6999.00
  13   994.41  999.79 1006.20 1012.10 1017.86 1023.62 1028.75 1034.05 1036.08 6999.00
  14  6999.00 1003.93 1008.71 1013.32 1018.48 1023.71 1029.29 1035.06 1039.33 6999.00
  15  6999.00 6999.00 1011.86 1015.02 1019.03 1022.31 6999.00 6999.00 6999.00 6999.00
1
  VOLUMETRIC BUDGET FOR ENTIRE MODEL AT END OF TIME STEP   15, STRESS PERIOD   1
  ------------------------------------------------------------------------------

     CUMULATIVE VOLUMES      L**3       RATES FOR THIS TIME STEP      L**3/T
     ------------------                 ------------------------

           IN:                                      IN:
           ---                                      ---
             STORAGE =  3366436864.0000               STORAGE =          67.5698
       CONSTANT HEAD =           0.0000         CONSTANT HEAD =           0.0000
               WELLS =           0.0000                 WELLS =           0.0000
                  ET =           0.0000                    ET =           0.0000
     HEAD DEP BOUNDS =     9274930.0000       HEAD DEP BOUNDS =           0.2154
            RECHARGE =    77262336.0000              RECHARGE =           1.7937
      STREAM LEAKAGE =  2140925568.0000        STREAM LEAKAGE =          53.5833

            TOTAL IN =  5593899520.0000              TOTAL IN =         123.1622

          OUT:                                     OUT:
          ----                                     ----
             STORAGE =     1744137.2500               STORAGE =           0.0000
       CONSTANT HEAD =           0.0000         CONSTANT HEAD =           0.0000
               WELLS =  4307308544.0000                 WELLS =         100.0000
                  ET =  1022837824.0000                    ET =          19.7573
     HEAD DEP BOUNDS =    10582947.0000       HEAD DEP BOUNDS =           0.2436
            RECHARGE =           0.0000              RECHARGE =           0.0000
      STREAM LEAKAGE =   251779856.0000        STREAM LEAKAGE =           3.1677

           TOTAL OUT =  5594253824.0000             TOTAL OUT =         123.1686

            IN - OUT =     -354304.0000              IN - OUT =      -6.4392E-03

 PERCENT DISCREPANCY =          -0.01     PERCENT DISCREPANCY =          -0.01






         TIME SUMMARY AT END OF TIME STEP   15 IN STRESS PERIOD    1
                    SECONDS     MINUTES      HOURS       DAYS        YEARS
                    -----------------------------------------------------------
   TIME STEP LENGTH 5.14816E+06  85803.      1430.0      59.585     0.16314    
 STRESS PERIOD TIME 4.30731E+07 7.17885E+05  11965.      498.53      1.3649    
         TOTAL TIME 4.30731E+07 7.17885E+05  11965.      498.53      1.3649    
1
 
 SOLVING FOR HEAD 
     7 ITERATIONS FOR TIME STEP  16 IN STRESS PERIOD    1

 MAXIMUM HEAD CHANGE FOR EACH ITERATION:

    HEAD CHANGE   HEAD CHANGE   HEAD CHANGE   HEAD CHANGE   HEAD CHANGE
  LAYER,ROW,COL LAYER,ROW,COL LAYER,ROW,COL LAYER,ROW,COL LAYER,ROW,COL
 ----------------------------------------------------------------------
     -1.401       -0.5198       -0.1705       -0.4300E-01   -0.9471E-02
  (  1,  8,  3) (  1,  8,  5) (  1,  8,  5) (  1,  7,  5) (  1,  8,  5)
    -0.1604E-02   -0.7205E-03
  (  1,  7,  5) (  1,  7,  5)


 NO OUTPUT CONTROL FOR STRESS PERIOD    1   TIME STEP   16
 
 SOLVING FOR HEAD 
     8 ITERATIONS FOR TIME STEP  17 IN STRESS PERIOD    1

 MAXIMUM HEAD CHANGE FOR EACH ITERATION:

    HEAD CHANGE   HEAD CHANGE   HEAD CHANGE   HEAD CHANGE   HEAD CHANGE
  LAYER,ROW,COL LAYER,ROW,COL LAYER,ROW,COL LAYER,ROW,COL LAYER,ROW,COL
 ----------------------------------------------------------------------
     -1.461       -0.5488       -0.1900       -0.4943E-01   -0.1078E-01
  (  1,  8,  2) (  1,  8,  5) (  1,  7,  5) (  1,  7,  5) (  1,  7,  5)
    -0.2368E-02   -0.8721E-03   -0.3002E-03
  (  1,  6,  8) (  1,  7,  5) (  1,  7,  5)


 NO OUTPUT CONTROL FOR STRESS PERIOD    1   TIME STEP   17
 
 SOLVING FOR HEAD 
     8 ITERATIONS FOR TIME STEP  18 IN STRESS PERIOD    1

 MAXIMUM HEAD CHANGE FOR EACH ITERATION:

    HEAD CHANGE   HEAD CHANGE   HEAD CHANGE   HEAD CHANGE   HEAD CHANGE
  LAYER,ROW,COL LAYER,ROW,COL LAYER,ROW,COL LAYER,ROW,COL LAYER,ROW,COL
 ----------------------------------------------------------------------
     -1.538       -0.5838       -0.2092       -0.5723E-01   -0.1359E-01
  (  1,  8,  2) (  1,  7,  5) (  1,  7,  5) (  1,  7,  5) (  1,  6,  8)
    -0.3480E-02   -0.1072E-02   -0.3879E-03
  (  1,  6,  8) (  1,  6,  6) (  1,  7,  5)


 NO OUTPUT CONTROL FOR STRESS PERIOD    1   TIME STEP   18
 
 SOLVING FOR HEAD 
     8 ITERATIONS FOR TIME STEP  19 IN STRESS PERIOD    1

 MAXIMUM HEAD CHANGE FOR EACH ITERATION:

    HEAD CHANGE   HEAD CHANGE   HEAD CHANGE   HEAD CHANGE   HEAD CHANGE
  LAYER,ROW,COL LAYER,ROW,COL LAYER,ROW,COL LAYER,ROW,COL LAYER,ROW,COL
 ----------------------------------------------------------------------
     -1.605       -0.6222       -0.2331       -0.6602E-01   -0.1533E-01
  (  1,  8,  2) (  1,  7,  5) (  1,  7,  5) (  1,  6,  6) (  1,  5,  8)
    -0.4123E-02   -0.1304E-02   -0.5237E-03
  (  1,  5,  8) (  1,  6,  6) (  1,  6,  6)


 NO OUTPUT CONTROL FOR STRESS PERIOD    1   TIME STEP   19
 
 SOLVING FOR HEAD 
     8 ITERATIONS FOR TIME STEP  20 IN STRESS PERIOD    1

 MAXIMUM HEAD CHANGE FOR EACH ITERATION:

    HEAD CHANGE   HEAD CHANGE   HEAD CHANGE   HEAD CHANGE   HEAD CHANGE
  LAYER,ROW,COL LAYER,ROW,COL LAYER,ROW,COL LAYER,ROW,COL LAYER,ROW,COL
 ----------------------------------------------------------------------
     -1.665       -0.6622       -0.2605       -0.7736E-01   -0.1659E-01
  (  1,  8,  2) (  1,  7,  5) (  1,  6,  5) (  1,  6,  6) (  1,  6,  6)
    -0.3474E-02   -0.1560E-02   -0.6077E-03
  (  1,  5,  8) (  1,  6,  6) (  1,  6,  6)


 OUTPUT CONTROL FOR STRESS PERIOD    1   TIME STEP   20
    PRINT BUDGET
    PRINT HEAD FOR ALL LAYERS
    SAVE BUDGET

            WELLS   PERIOD    1   STEP  20
 WELL      1   LAYER   1   ROW     6   COL     4   RATE   -10.00000    
 WELL      2   LAYER   1   ROW     6   COL     5   RATE   -10.00000    
 WELL      3   LAYER   1   ROW     7   COL     4   RATE   -10.00000    
 WELL      4   LAYER   1   ROW     7   COL     5   RATE   -10.00000    
 WELL      5   LAYER   1   ROW     8   COL     4   RATE   -10.00000    
 WELL      6   LAYER   1   ROW     8   COL     5   RATE   -10.00000    
 WELL      7   LAYER   1   ROW     9   COL     4   RATE   -10.00000    
 WELL      8   LAYER   1   ROW     9   COL     5   RATE   -10.00000    
 WELL      9   LAYER   1   ROW    10   COL     4   RATE   -10.00000    
 WELL     10   LAYER   1   ROW    10   COL     5   RATE   -10.00000    
 UBUDSV SAVING "              ET" ON UNIT 59 AT TIME STEP 20, STRESS PERIOD    1

  HEAD DEP BOUNDS   PERIOD    1   STEP  20
 BOUNDARY      1   LAYER   1   ROW    13   COL     1   RATE   -0.240367    
 BOUNDARY      2   LAYER   1   ROW    14   COL     9   RATE    0.215641    



 STREAM LISTING     PERIOD      1   STEP       20

 LAYER ROW COL. STREAM  RCH.  FLOW INTO     FLOW TO   FLOW OUT OF   OVRLND.     DIRECT     STREAM       STREAM     STREAM     STREAM   STREAMBED  STREAMBED
                SEG.NO.  NO.  STRM. RCH.    AQUIFER    STRM. RCH.    RUNOFF     PRECIP       ET          HEAD       DEPTH      WIDTH   CONDCTNC.   GRADIENT

   1    1    1     1     1    2.5000E+01  8.9528E-01   2.4105E+01  0.000E+00  0.000E+00  0.000E+00  1.09422E+03  1.173E+00  1.297E+01  5.838E-01  5.112E-01
   1    2    2     1     2    2.4105E+01  3.5039E+00   2.0601E+01  0.000E+00  0.000E+00  0.000E+00  1.08920E+03  1.139E+00  1.252E+01  8.763E-01  1.333E+00
   1    3    3     1     3    2.0601E+01  2.8801E+00   1.7721E+01  0.000E+00  0.000E+00  0.000E+00  1.08351E+03  1.086E+00  1.175E+01  7.048E-01  1.362E+00
   1    3    4     1     4    1.7721E+01  2.4452E+00   1.5276E+01  0.000E+00  0.000E+00  0.000E+00  1.07845E+03  1.040E+00  1.090E+01  6.052E-01  1.347E+00
   1    4    5     2     1    5.2755E+00  2.6513E+00   2.6242E+00  0.000E+00  0.000E+00  0.000E+00  1.07233E+03  3.991E-01  1.200E+01  7.800E-01  1.133E+00
   1    5    6     2     2    2.6242E+00  1.9420E+00   6.8222E-01  0.000E+00  0.000E+00  0.000E+00  1.06675E+03  2.367E-01  1.200E+01  6.000E-01  1.079E+00
   1    6    6     2     3    6.8222E-01  6.8222E-01   0.0000E+00  0.000E+00  0.000E+00  0.000E+00  1.06182E+03  3.131E-02  1.200E+01  6.000E-01  1.010E+00
   1    7    6     2     4    0.0000E+00  0.0000E+00   0.0000E+00  0.000E+00  0.000E+00  0.000E+00  1.05708E+03  0.000E+00  1.200E+01  6.000E-01  1.000E+00
   1    8    6     2     5    0.0000E+00  0.0000E+00   0.0000E+00  0.000E+00  0.000E+00  0.000E+00  1.05236E+03  0.000E+00  1.200E+01  6.000E-01  1.000E+00
   1    3    5     3     1    1.0000E+01  2.8252E+00   7.1748E+00  0.000E+00  0.000E+00  0.000E+00  1.07555E+03  1.909E+00  9.636E+00  7.227E-01  1.955E+00
   1    3    6     3     2    7.1748E+00  2.4905E+00   4.6843E+00  0.000E+00  0.000E+00  0.000E+00  1.07264E+03  1.727E+00  8.909E+00  6.682E-01  1.864E+00
   1    3    7     3     3    4.6843E+00  1.5426E+00   3.1417E+00  0.000E+00  0.000E+00  0.000E+00  1.06987E+03  1.555E+00  8.218E+00  5.547E-01  1.390E+00
   1    4    8     3     4    3.1417E+00  2.2567E+00   8.8500E-01  0.000E+00  0.000E+00  0.000E+00  1.06682E+03  1.364E+00  7.455E+00  6.709E-01  1.682E+00
   1    5    8     3     5    8.8500E-01  8.8500E-01   0.0000E+00  0.000E+00  0.000E+00  0.000E+00  1.06362E+03  0.000E+00  6.655E+00  4.991E-01  1.582E+00
   1    6    8     3     6    0.0000E+00  0.0000E+00   0.0000E+00  0.000E+00  0.000E+00  0.000E+00  1.06055E+03  0.000E+00  6.145E+00  1.844E-01  1.000E+00
   1    5   10     4     1    1.0000E+01  9.0525E-01   9.0947E+00  0.000E+00  0.000E+00  0.000E+00  1.07835E+03  6.210E-01  1.000E+01  2.500E-01  1.207E+00
   1    5    9     4     2    9.0947E+00  1.7835E+00   7.3113E+00  0.000E+00  0.000E+00  0.000E+00  1.07148E+03  5.670E-01  1.000E+01  5.000E-01  1.189E+00
   1    6    8     4     3    7.3113E+00  1.2257E+00   6.0855E+00  0.000E+00  0.000E+00  0.000E+00  1.06368E+03  5.021E-01  1.000E+01  3.500E-01  1.167E+00
   1    6    8     5     1    6.0855E+00  1.4717E+00   4.6139E+00  0.000E+00  0.000E+00  0.000E+00  1.05854E+03  5.396E-01  1.039E+01  4.158E-01  1.180E+00
   1    7    7     5     2    4.6139E+00  1.4899E+00   3.1240E+00  0.000E+00  0.000E+00  0.000E+00  1.05398E+03  4.817E-01  8.558E+00  4.279E-01  1.161E+00
   1    8    7     5     3    3.1240E+00  8.2856E-01   2.2955E+00  0.000E+00  0.000E+00  0.000E+00  1.04968E+03  4.253E-01  6.911E+00  2.419E-01  1.142E+00
   1    8    6     5     4    2.2955E+00  4.9460E-01   1.8009E+00  0.000E+00  0.000E+00  0.000E+00  1.04664E+03  3.856E-01  5.844E+00  1.461E-01  1.129E+00
   1    9    6     6     1    1.8009E+00  1.8009E+00   0.0000E+00  0.000E+00  0.000E+00  0.000E+00  1.04278E+03  5.668E-02  1.200E+01  6.000E-01  1.019E+00
   1   10    7     6     2    0.0000E+00  0.0000E+00   0.0000E+00  0.000E+00  0.000E+00  0.000E+00  1.03818E+03  0.000E+00  1.200E+01  6.000E-01  1.000E+00
   1   11    7     6     3    0.0000E+00  0.0000E+00   0.0000E+00  0.000E+00  0.000E+00  0.000E+00  1.03364E+03  0.000E+00  1.200E+01  6.000E-01  1.000E+00
   1   12    7     6     4    0.0000E+00  0.0000E+00   0.0000E+00  0.000E+00  0.000E+00  0.000E+00  1.02909E+03  0.000E+00  1.200E+01  6.000E-01  1.000E+00
   1   13    7     6     5    0.0000E+00 -6.0465E-01   6.0465E-01  0.000E+00  0.000E+00  0.000E+00  1.02600E+03  8.635E-02  1.200E+01  2.400E-01 -8.398E-01
   1   14    9     7     1    1.5000E+02  3.0119E+00   1.4699E+02  0.000E+00  0.000E+00  0.000E+00  1.03986E+03  2.283E+00  5.527E+01  5.591E+00  1.796E-01
   1   13    8     7     2    1.4699E+02  4.6859E+00   1.4230E+02  0.000E+00  0.000E+00  0.000E+00  1.03476E+03  2.263E+00  5.518E+01  6.139E+00  2.544E-01
   1   13    7     7     3    1.4230E+02  6.3307E+00   1.3597E+02  0.000E+00  0.000E+00  0.000E+00  1.02965E+03  2.233E+00  5.505E+01  5.566E+00  3.791E-01
   1   13    6     8     1    1.3658E+02  5.4198E+00   1.3116E+02  0.000E+00  0.000E+00  0.000E+00  1.02457E+03  2.699E+00  3.914E+01  3.988E+00  4.530E-01
   1   13    5     8     2    1.3116E+02  3.6076E+00   1.2755E+02  0.000E+00  0.000E+00  0.000E+00  1.01829E+03  2.665E+00  3.864E+01  3.937E+00  3.054E-01
   1   13    4     8     3    1.2755E+02  1.4435E+00   1.2611E+02  0.000E+00  0.000E+00  0.000E+00  1.01202E+03  2.645E+00  3.835E+01  3.908E+00  1.231E-01
   1   13    3     8     4    1.2611E+02 -4.6069E-01   1.2657E+02  0.000E+00  0.000E+00  0.000E+00  1.00577E+03  2.641E+00  3.830E+01  3.903E+00 -3.935E-02
   1   13    2     8     5    1.2657E+02 -5.6363E-01   1.2713E+02  0.000E+00  0.000E+00  0.000E+00  9.99520E+02  2.645E+00  3.836E+01  3.909E+00 -4.807E-02
   1   13    1     8     6    1.2713E+02  4.5776E-01   1.2667E+02  0.000E+00  0.000E+00  0.000E+00  9.94521E+02  2.646E+00  3.836E+01  2.345E+00  6.506E-02



1
              HEAD IN LAYER   1 AT END OF TIME STEP  20 IN STRESS PERIOD    1
  ---------------------------------------------------------------------------

           1       2       3       4       5       6       7       8       9      10
 ...................................................................................
   1  1092.69 1088.70 6999.00 6999.00 6999.00 6999.00 6999.00 6999.00 6999.00 6999.00
   2  1089.30 1085.20 1076.38 6999.00 6999.00 1069.30 1069.73 1069.82 6999.00 6999.00
   3  6999.00 1074.18 1068.84 1062.18 1062.75 1064.84 1067.09 1066.94 6999.00 6999.00
   4  1064.00 1062.60 1057.89 1051.08 1049.44 1049.46 1054.39 1063.34 1062.65 6999.00
   5  1058.30 1052.28 1044.86 1038.91 1039.38 1043.05 1046.17 1051.85 1059.04 1063.83
   6  1051.47 1042.94 1032.36 1023.44 1025.88 1034.40 1040.67 1046.91 1054.57 1062.19
   7  1046.53 1034.78 1022.51 1012.64 1016.21 1026.39 1034.54 1041.20 1048.79 6999.00
   8  6999.00 1025.75 1014.79 1004.92 1009.24 1019.78 1026.80 1035.82 1043.79 6999.00
   9  6999.00 1019.52 1010.04 1001.17 1005.74 1015.85 1021.44 1029.72 1038.20 6999.00
  10  6999.00 1015.51 1008.68 1002.11 1006.03 1014.41 1019.33 1026.42 1034.38 1039.84
  11  6999.00 1011.89 1009.72 1008.77 1011.58 1016.27 1020.01 1025.78 1031.89 6999.00
  12   999.95 1005.55 1008.85 1011.25 1014.86 1019.05 1022.45 1027.63 1032.77 6999.00
  13   994.33  999.66 1005.88 1011.65 1017.37 1023.22 1028.51 1034.00 1035.96 6999.00
  14  6999.00 1003.78 1008.41 1012.93 1018.06 1023.36 1029.07 1035.01 1039.33 6999.00
  15  6999.00 6999.00 1011.71 1014.81 1018.81 1022.11 6999.00 6999.00 6999.00 6999.00
1
  VOLUMETRIC BUDGET FOR ENTIRE MODEL AT END OF TIME STEP   20, STRESS PERIOD   1
  ------------------------------------------------------------------------------

     CUMULATIVE VOLUMES      L**3       RATES FOR THIS TIME STEP      L**3/T
     ------------------                 ------------------------

           IN:                                      IN:
           ---                                      ---
             STORAGE =  5495440384.0000               STORAGE =          58.1146
       CONSTANT HEAD =           0.0000         CONSTANT HEAD =           0.0000
               WELLS =           0.0000                 WELLS =           0.0000
                  ET =           0.0000                    ET =           0.0000
     HEAD DEP BOUNDS =    16726603.0000       HEAD DEP BOUNDS =           0.2156
            RECHARGE =   139277792.0000              RECHARGE =           1.7937
      STREAM LEAKAGE =  4130469376.0000        STREAM LEAKAGE =          59.9571

            TOTAL IN =  9781913600.0000              TOTAL IN =         120.0811

          OUT:                                     OUT:
          ----                                     ----
             STORAGE =     1744137.2500               STORAGE =           0.0000
       CONSTANT HEAD =           0.0000         CONSTANT HEAD =           0.0000
               WELLS =  7764615168.0000                 WELLS =         100.0000
                  ET =  1671043200.0000                    ET =          18.2158
     HEAD DEP BOUNDS =    18936058.0000       HEAD DEP BOUNDS =           0.2404
            RECHARGE =           0.0000              RECHARGE =           0.0000
      STREAM LEAKAGE =   326055744.0000        STREAM LEAKAGE =           1.6290

           TOTAL OUT =  9782393856.0000             TOTAL OUT =         120.0852

            IN - OUT =     -480256.0000              IN - OUT =      -4.0512E-03

 PERCENT DISCREPANCY =          -0.00     PERCENT DISCREPANCY =          -0.00






         TIME SUMMARY AT END OF TIME STEP   20 IN STRESS PERIOD    1
                    SECONDS     MINUTES      HOURS       DAYS        YEARS
                    -----------------------------------------------------------
   TIME STEP LENGTH 8.29117E+06 1.38186E+05  2303.1      95.963     0.26273    
 STRESS PERIOD TIME 7.76462E+07 1.29410E+06  21568.      898.68      2.4605    
         TOTAL TIME 7.76462E+07 1.29410E+06  21568.      898.68      2.4605    
1
 
 SOLVING FOR HEAD 
     8 ITERATIONS FOR TIME STEP  21 IN STRESS PERIOD    1

 MAXIMUM HEAD CHANGE FOR EACH ITERATION:

    HEAD CHANGE   HEAD CHANGE   HEAD CHANGE   HEAD CHANGE   HEAD CHANGE
  LAYER,ROW,COL LAYER,ROW,COL LAYER,ROW,COL LAYER,ROW,COL LAYER,ROW,COL
 ----------------------------------------------------------------------
     -1.717       -0.7009       -0.2896       -0.8460E-01   -0.1893E-01
  (  1,  8,  2) (  1,  7,  5) (  1,  6,  5) (  1,  7,  5) (  1,  7,  5)
    -0.3385E-02   -0.1687E-02   -0.6938E-03
  (  1,  5,  8) (  1,  7,  5) (  1,  7,  5)


 NO OUTPUT CONTROL FOR STRESS PERIOD    1   TIME STEP   21
 
 SOLVING FOR HEAD 
     9 ITERATIONS FOR TIME STEP  22 IN STRESS PERIOD    1

 MAXIMUM HEAD CHANGE FOR EACH ITERATION:

    HEAD CHANGE   HEAD CHANGE   HEAD CHANGE   HEAD CHANGE   HEAD CHANGE
  LAYER,ROW,COL LAYER,ROW,COL LAYER,ROW,COL LAYER,ROW,COL LAYER,ROW,COL
 ----------------------------------------------------------------------
     -1.763       -0.7349       -0.3211       -0.9609E-01   -0.2193E-01
  (  1,  8,  2) (  1,  7,  5) (  1,  6,  5) (  1,  7,  5) (  1,  7,  5)
    -0.3328E-02   -0.1982E-02   -0.8387E-03   -0.2378E-03
  (  1,  7,  5) (  1,  7,  5) (  1,  7,  5) (  1,  7,  5)


 NO OUTPUT CONTROL FOR STRESS PERIOD    1   TIME STEP   22
 
 SOLVING FOR HEAD 
     9 ITERATIONS FOR TIME STEP  23 IN STRESS PERIOD    1

 MAXIMUM HEAD CHANGE FOR EACH ITERATION:

    HEAD CHANGE   HEAD CHANGE   HEAD CHANGE   HEAD CHANGE   HEAD CHANGE
  LAYER,ROW,COL LAYER,ROW,COL LAYER,ROW,COL LAYER,ROW,COL LAYER,ROW,COL
 ----------------------------------------------------------------------
     -1.800       -0.7710       -0.3576       -0.1086       -0.2547E-01
  (  1,  8,  2) (  1,  6,  5) (  1,  6,  5) (  1,  7,  5) (  1,  7,  5)
    -0.3750E-02   -0.2331E-02   -0.1029E-02   -0.3002E-03
  (  1,  7,  5) (  1,  7,  5) (  1,  7,  5) (  1,  7,  5)


 NO OUTPUT CONTROL FOR STRESS PERIOD    1   TIME STEP   23
 
 SOLVING FOR HEAD 
     9 ITERATIONS FOR TIME STEP  24 IN STRESS PERIOD    1

 MAXIMUM HEAD CHANGE FOR EACH ITERATION:

    HEAD CHANGE   HEAD CHANGE   HEAD CHANGE   HEAD CHANGE   HEAD CHANGE
  LAYER,ROW,COL LAYER,ROW,COL LAYER,ROW,COL LAYER,ROW,COL LAYER,ROW,COL
 ----------------------------------------------------------------------
     -1.831       -0.8138       -0.3975       -0.1240       -0.2955E-01
  (  1,  8,  2) (  1,  6,  5) (  1,  6,  5) (  1,  7,  5) (  1,  7,  5)
    -0.4300E-02   -0.2761E-02   -0.1281E-02   -0.3862E-03
  (  1,  7,  8) (  1,  7,  5) (  1,  7,  5) (  1,  7,  5)


 NO OUTPUT CONTROL FOR STRESS PERIOD    1   TIME STEP   24
 
 SOLVING FOR HEAD 
     9 ITERATIONS FOR TIME STEP  25 IN STRESS PERIOD    1

 MAXIMUM HEAD CHANGE FOR EACH ITERATION:

    HEAD CHANGE   HEAD CHANGE   HEAD CHANGE   HEAD CHANGE   HEAD CHANGE
  LAYER,ROW,COL LAYER,ROW,COL LAYER,ROW,COL LAYER,ROW,COL LAYER,ROW,COL
 ----------------------------------------------------------------------
     -1.922       -0.8574       -0.4413       -0.1417       -0.3433E-01
  (  1,  7,  1) (  1,  6,  5) (  1,  6,  5) (  1,  7,  5) (  1,  7,  5)
    -0.5059E-02   -0.3273E-02   -0.1590E-02   -0.4992E-03
  (  1,  7,  8) (  1,  7,  5) (  1,  7,  5) (  1,  7,  5)


 OUTPUT CONTROL FOR STRESS PERIOD    1   TIME STEP   25
    PRINT BUDGET
    PRINT HEAD FOR ALL LAYERS
    SAVE BUDGET

            WELLS   PERIOD    1   STEP  25
 WELL      1   LAYER   1   ROW     6   COL     4   RATE   -10.00000    
 WELL      2   LAYER   1   ROW     6   COL     5   RATE   -10.00000    
 WELL      3   LAYER   1   ROW     7   COL     4   RATE   -10.00000    
 WELL      4   LAYER   1   ROW     7   COL     5   RATE   -10.00000    
 WELL      5   LAYER   1   ROW     8   COL     4   RATE   -10.00000    
 WELL      6   LAYER   1   ROW     8   COL     5   RATE   -10.00000    
 WELL      7   LAYER   1   ROW     9   COL     4   RATE   -10.00000    
 WELL      8   LAYER   1   ROW     9   COL     5   RATE   -10.00000    
 WELL      9   LAYER   1   ROW    10   COL     4   RATE   -10.00000    
 WELL     10   LAYER   1   ROW    10   COL     5   RATE   -10.00000    
 UBUDSV SAVING "              ET" ON UNIT 59 AT TIME STEP 25, STRESS PERIOD    1

  HEAD DEP BOUNDS   PERIOD    1   STEP  25
 BOUNDARY      1   LAYER   1   ROW    13   COL     1   RATE   -0.236453    
 BOUNDARY      2   LAYER   1   ROW    14   COL     9   RATE    0.216080    



 STREAM LISTING     PERIOD      1   STEP       25

 LAYER ROW COL. STREAM  RCH.  FLOW INTO     FLOW TO   FLOW OUT OF   OVRLND.     DIRECT     STREAM       STREAM     STREAM     STREAM   STREAMBED  STREAMBED
                SEG.NO.  NO.  STRM. RCH.    AQUIFER    STRM. RCH.    RUNOFF     PRECIP       ET          HEAD       DEPTH      WIDTH   CONDCTNC.   GRADIENT

   1    1    1     1     1    2.5000E+01  1.2011E+00   2.3799E+01  0.000E+00  0.000E+00  0.000E+00  1.09422E+03  1.171E+00  1.294E+01  5.824E-01  6.874E-01
   1    2    2     1     2    2.3799E+01  3.6002E+00   2.0199E+01  0.000E+00  0.000E+00  0.000E+00  1.08919E+03  1.134E+00  1.244E+01  8.710E-01  1.378E+00
   1    3    3     1     3    2.0199E+01  2.8467E+00   1.7352E+01  0.000E+00  0.000E+00  0.000E+00  1.08350E+03  1.080E+00  1.163E+01  6.977E-01  1.360E+00
   1    3    4     1     4    1.7352E+01  2.4151E+00   1.4937E+01  0.000E+00  0.000E+00  0.000E+00  1.07844E+03  1.034E+00  1.079E+01  5.987E-01  1.345E+00
   1    4    5     2     1    4.9369E+00  2.6354E+00   2.3015E+00  0.000E+00  0.000E+00  0.000E+00  1.07231E+03  3.787E-01  1.200E+01  7.800E-01  1.126E+00
   1    5    6     2     2    2.3015E+00  1.9251E+00   3.7639E-01  0.000E+00  0.000E+00  0.000E+00  1.06672E+03  2.085E-01  1.200E+01  6.000E-01  1.070E+00
   1    6    6     2     3    3.7639E-01  3.7639E-01   0.0000E+00  0.000E+00  0.000E+00  0.000E+00  1.06181E+03  2.191E-02  1.200E+01  6.000E-01  1.007E+00
   1    7    6     2     4    0.0000E+00  0.0000E+00   0.0000E+00  0.000E+00  0.000E+00  0.000E+00  1.05708E+03  0.000E+00  1.200E+01  6.000E-01  1.000E+00
   1    8    6     2     5    0.0000E+00  0.0000E+00   0.0000E+00  0.000E+00  0.000E+00  0.000E+00  1.05236E+03  0.000E+00  1.200E+01  6.000E-01  1.000E+00
   1    3    5     3     1    1.0000E+01  2.8252E+00   7.1748E+00  0.000E+00  0.000E+00  0.000E+00  1.07555E+03  1.909E+00  9.636E+00  7.227E-01  1.955E+00
   1    3    6     3     2    7.1748E+00  2.4905E+00   4.6843E+00  0.000E+00  0.000E+00  0.000E+00  1.07264E+03  1.727E+00  8.909E+00  6.682E-01  1.864E+00
   1    3    7     3     3    4.6843E+00  1.9718E+00   2.7125E+00  0.000E+00  0.000E+00  0.000E+00  1.06987E+03  1.555E+00  8.218E+00  5.547E-01  1.777E+00
   1    4    8     3     4    2.7125E+00  2.2567E+00   4.5579E-01  0.000E+00  0.000E+00  0.000E+00  1.06682E+03  1.364E+00  7.455E+00  6.709E-01  1.682E+00
   1    5    8     3     5    4.5579E-01  4.5579E-01   0.0000E+00  0.000E+00  0.000E+00  0.000E+00  1.06362E+03  0.000E+00  6.655E+00  4.991E-01  1.582E+00
   1    6    8     3     6    0.0000E+00  0.0000E+00   0.0000E+00  0.000E+00  0.000E+00  0.000E+00  1.06055E+03  0.000E+00  6.145E+00  1.844E-01  1.000E+00
   1    5   10     4     1    1.0000E+01  9.0525E-01   9.0947E+00  0.000E+00  0.000E+00  0.000E+00  1.07835E+03  6.210E-01  1.000E+01  2.500E-01  1.207E+00
   1    5    9     4     2    9.0947E+00  1.7835E+00   7.3113E+00  0.000E+00  0.000E+00  0.000E+00  1.07148E+03  5.670E-01  1.000E+01  5.000E-01  1.189E+00
   1    6    8     4     3    7.3113E+00  1.2257E+00   6.0855E+00  0.000E+00  0.000E+00  0.000E+00  1.06368E+03  5.021E-01  1.000E+01  3.500E-01  1.167E+00
   1    6    8     5     1    6.0855E+00  1.4717E+00   4.6139E+00  0.000E+00  0.000E+00  0.000E+00  1.05854E+03  5.396E-01  1.039E+01  4.158E-01  1.180E+00
   1    7    7     5     2    4.6139E+00  1.4899E+00   3.1240E+00  0.000E+00  0.000E+00  0.000E+00  1.05398E+03  4.817E-01  8.558E+00  4.279E-01  1.161E+00
   1    8    7     5     3    3.1240E+00  8.2856E-01   2.2955E+00  0.000E+00  0.000E+00  0.000E+00  1.04968E+03  4.253E-01  6.911E+00  2.419E-01  1.142E+00
   1    8    6     5     4    2.2955E+00  4.9460E-01   1.8009E+00  0.000E+00  0.000E+00  0.000E+00  1.04664E+03  3.856E-01  5.844E+00  1.461E-01  1.129E+00
   1    9    6     6     1    1.8009E+00  1.8009E+00   0.0000E+00  0.000E+00  0.000E+00  0.000E+00  1.04278E+03  5.668E-02  1.200E+01  6.000E-01  1.019E+00
   1   10    7     6     2    0.0000E+00  0.0000E+00   0.0000E+00  0.000E+00  0.000E+00  0.000E+00  1.03818E+03  0.000E+00  1.200E+01  6.000E-01  1.000E+00
   1   11    7     6     3    0.0000E+00  0.0000E+00   0.0000E+00  0.000E+00  0.000E+00  0.000E+00  1.03364E+03  0.000E+00  1.200E+01  6.000E-01  1.000E+00
   1   12    7     6     4    0.0000E+00  0.0000E+00   0.0000E+00  0.000E+00  0.000E+00  0.000E+00  1.02909E+03  0.000E+00  1.200E+01  6.000E-01  1.000E+00
   1   13    7     6     5    0.0000E+00 -5.4593E-01   5.4593E-01  0.000E+00  0.000E+00  0.000E+00  1.02599E+03  8.122E-02  1.200E+01  2.400E-01 -7.582E-01
   1   14    9     7     1    1.5000E+02  3.0754E+00   1.4692E+02  0.000E+00  0.000E+00  0.000E+00  1.03986E+03  2.283E+00  5.527E+01  5.591E+00  1.834E-01
   1   13    8     7     2    1.4692E+02  5.0544E+00   1.4187E+02  0.000E+00  0.000E+00  0.000E+00  1.03476E+03  2.261E+00  5.518E+01  6.138E+00  2.745E-01
   1   13    7     7     3    1.4187E+02  7.6832E+00   1.3419E+02  0.000E+00  0.000E+00  0.000E+00  1.02965E+03  2.227E+00  5.502E+01  5.563E+00  4.604E-01
   1   13    6     8     1    1.3473E+02  7.0428E+00   1.2769E+02  0.000E+00  0.000E+00  0.000E+00  1.02455E+03  2.679E+00  3.885E+01  3.958E+00  5.931E-01
   1   13    5     8     2    1.2769E+02  5.4714E+00   1.2222E+02  0.000E+00  0.000E+00  0.000E+00  1.01826E+03  2.630E+00  3.814E+01  3.887E+00  4.693E-01
   1   13    4     8     3    1.2222E+02  3.0703E+00   1.1915E+02  0.000E+00  0.000E+00  0.000E+00  1.01197E+03  2.596E+00  3.765E+01  3.836E+00  2.668E-01
   1   13    3     8     4    1.1915E+02  6.3256E-01   1.1852E+02  0.000E+00  0.000E+00  0.000E+00  1.00571E+03  2.581E+00  3.743E+01  3.814E+00  5.528E-02
   1   13    2     8     5    1.1852E+02 -2.3741E-01   1.1875E+02  0.000E+00  0.000E+00  0.000E+00  9.99455E+02  2.580E+00  3.740E+01  3.812E+00 -2.076E-02
   1   13    1     8     6    1.1875E+02  5.2811E-01   1.1823E+02  0.000E+00  0.000E+00  0.000E+00  9.94453E+02  2.578E+00  3.739E+01  2.286E+00  7.701E-02



1
              HEAD IN LAYER   1 AT END OF TIME STEP  25 IN STRESS PERIOD    1
  ---------------------------------------------------------------------------

           1       2       3       4       5       6       7       8       9      10
 ...................................................................................
   1  1092.16 1086.57 6999.00 6999.00 6999.00 6999.00 6999.00 6999.00 6999.00 6999.00
   2  1087.50 1081.14 1070.20 6999.00 6999.00 1064.03 1066.08 1066.86 6999.00 6999.00
   3  6999.00 1067.70 1060.81 1053.11 1053.52 1056.94 1062.11 1062.42 6999.00 6999.00
   4  1056.16 1054.19 1048.62 1041.06 1039.18 1039.34 1045.54 1055.79 1055.25 6999.00
   5  1049.45 1042.37 1034.32 1028.09 1028.53 1032.30 1035.58 1041.46 1049.69 1055.58
   6  1041.47 1031.88 1020.93 1012.01 1014.53 1023.22 1029.76 1036.23 1044.96 1054.59
   7  1035.74 1022.92 1010.65 1001.07 1004.86 1015.33 1023.67 1030.36 1039.09 6999.00
   8  6999.00 1013.41 1003.04  993.78  998.45 1009.30 1016.44 1025.46 1034.82 6999.00
   9  6999.00 1007.93  999.37  991.23  996.13 1006.51 1012.22 1020.60 1030.45 6999.00
  10  6999.00 1006.04 1000.09  994.05  998.14 1006.72 1011.78 1019.16 1028.44 1035.79
  11  6999.00 1005.72 1004.31 1003.12 1005.93 1010.73 1014.63 1020.81 1027.54 6999.00
  12   998.76 1003.22 1006.46 1008.21 1011.72 1016.06 1019.78 1026.00 1031.03 6999.00
  13   994.22  999.52 1005.54 1011.17 1016.85 1022.77 1028.27 1033.94 1035.76 6999.00
  14  6999.00 1003.51 1008.02 1012.45 1017.56 1022.94 1028.80 1034.93 1039.31 6999.00
  15  6999.00 6999.00 1011.36 1014.41 1018.38 1021.70 6999.00 6999.00 6999.00 6999.00
1
  VOLUMETRIC BUDGET FOR ENTIRE MODEL AT END OF TIME STEP   25, STRESS PERIOD   1
  ------------------------------------------------------------------------------

     CUMULATIVE VOLUMES      L**3       RATES FOR THIS TIME STEP      L**3/T
     ------------------                 ------------------------

           IN:                                      IN:
           ---                                      ---
             STORAGE =  8386531328.0000               STORAGE =          48.4119
       CONSTANT HEAD =           0.0000         CONSTANT HEAD =           0.0000
               WELLS =           0.0000                 WELLS =           0.0000
                  ET =           0.0000                    ET =           0.0000
     HEAD DEP BOUNDS =    28748558.0000       HEAD DEP BOUNDS =           0.2161
            RECHARGE =   239154288.0000              RECHARGE =           1.7937
      STREAM LEAKAGE =  7730039808.0000        STREAM LEAKAGE =          67.5581

            TOTAL IN = 16384474112.0000              TOTAL IN =         117.9799

          OUT:                                     OUT:
          ----                                     ----
             STORAGE =     1744137.2500               STORAGE =           0.0000
       CONSTANT HEAD =           0.0000         CONSTANT HEAD =           0.0000
               WELLS = 13332643840.0000                 WELLS =         100.0000
                  ET =  2638564352.0000                    ET =          16.9626
     HEAD DEP BOUNDS =    32182834.0000       HEAD DEP BOUNDS =           0.2365
            RECHARGE =           0.0000              RECHARGE =           0.0000
      STREAM LEAKAGE =   379929920.0000        STREAM LEAKAGE =           0.7833

           TOTAL OUT = 16385064960.0000             TOTAL OUT =         117.9824

            IN - OUT =     -590848.0000              IN - OUT =      -2.4719E-03

 PERCENT DISCREPANCY =          -0.00     PERCENT DISCREPANCY =          -0.00






         TIME SUMMARY AT END OF TIME STEP   25 IN STRESS PERIOD    1
                    SECONDS     MINUTES      HOURS       DAYS        YEARS
                    -----------------------------------------------------------
   TIME STEP LENGTH 1.33530E+07 2.22550E+05  3709.2      154.55     0.42313    
 STRESS PERIOD TIME 1.33326E+08 2.22211E+06  37035.      1543.1      4.2249    
         TOTAL TIME 1.33326E+08 2.22211E+06  37035.      1543.1      4.2249    
1
 
 SOLVING FOR HEAD 
     9 ITERATIONS FOR TIME STEP  26 IN STRESS PERIOD    1

 MAXIMUM HEAD CHANGE FOR EACH ITERATION:

    HEAD CHANGE   HEAD CHANGE   HEAD CHANGE   HEAD CHANGE   HEAD CHANGE
  LAYER,ROW,COL LAYER,ROW,COL LAYER,ROW,COL LAYER,ROW,COL LAYER,ROW,COL
 ----------------------------------------------------------------------
     -2.042       -0.9013       -0.4889       -0.1617       -0.3993E-01
  (  1,  7,  1) (  1,  6,  5) (  1,  6,  5) (  1,  7,  5) (  1,  7,  5)
    -0.5945E-02   -0.3875E-02   -0.1978E-02   -0.6407E-03
  (  1,  7,  8) (  1,  7,  5) (  1,  7,  5) (  1,  7,  5)


 NO OUTPUT CONTROL FOR STRESS PERIOD    1   TIME STEP   26
 
 SOLVING FOR HEAD 
    10 ITERATIONS FOR TIME STEP  27 IN STRESS PERIOD    1

 MAXIMUM HEAD CHANGE FOR EACH ITERATION:

    HEAD CHANGE   HEAD CHANGE   HEAD CHANGE   HEAD CHANGE   HEAD CHANGE
  LAYER,ROW,COL LAYER,ROW,COL LAYER,ROW,COL LAYER,ROW,COL LAYER,ROW,COL
 ----------------------------------------------------------------------
     -2.155       -0.9445       -0.5400       -0.1843       -0.4643E-01
  (  1,  7,  1) (  1,  6,  5) (  1,  6,  5) (  1,  7,  5) (  1,  7,  5)
    -0.6977E-02   -0.4579E-02   -0.2458E-02   -0.8262E-03   -0.2190E-03
  (  1,  7,  8) (  1,  7,  5) (  1,  7,  5) (  1,  7,  5) (  1,  7,  5)


 NO OUTPUT CONTROL FOR STRESS PERIOD    1   TIME STEP   27
 
 SOLVING FOR HEAD 
    10 ITERATIONS FOR TIME STEP  28 IN STRESS PERIOD    1

 MAXIMUM HEAD CHANGE FOR EACH ITERATION:

    HEAD CHANGE   HEAD CHANGE   HEAD CHANGE   HEAD CHANGE   HEAD CHANGE
  LAYER,ROW,COL LAYER,ROW,COL LAYER,ROW,COL LAYER,ROW,COL LAYER,ROW,COL
 ----------------------------------------------------------------------
     -2.260       -0.9863       -0.5942       -0.2096       -0.5401E-01
  (  1,  7,  1) (  1,  6,  5) (  1,  6,  5) (  1,  7,  5) (  1,  7,  5)
    -0.8166E-02   -0.5410E-02   -0.3038E-02   -0.1061E-02   -0.2819E-03
  (  1,  7,  8) (  1,  6,  5) (  1,  7,  5) (  1,  7,  5) (  1,  7,  5)


 NO OUTPUT CONTROL FOR STRESS PERIOD    1   TIME STEP   28
 
 SOLVING FOR HEAD 
    10 ITERATIONS FOR TIME STEP  29 IN STRESS PERIOD    1

 MAXIMUM HEAD CHANGE FOR EACH ITERATION:

    HEAD CHANGE   HEAD CHANGE   HEAD CHANGE   HEAD CHANGE   HEAD CHANGE
  LAYER,ROW,COL LAYER,ROW,COL LAYER,ROW,COL LAYER,ROW,COL LAYER,ROW,COL
 ----------------------------------------------------------------------
     -2.355        -1.027       -0.6498       -0.2369       -0.6262E-01
  (  1,  7,  1) (  1,  6,  6) (  1,  6,  5) (  1,  7,  5) (  1,  7,  5)
    -0.9539E-02   -0.6404E-02   -0.3741E-02   -0.1365E-02   -0.3700E-03
  (  1,  7,  8) (  1,  6,  5) (  1,  7,  5) (  1,  7,  5) (  1,  7,  5)


 NO OUTPUT CONTROL FOR STRESS PERIOD    1   TIME STEP   29
 
 SOLVING FOR HEAD 
    10 ITERATIONS FOR TIME STEP  30 IN STRESS PERIOD    1

 MAXIMUM HEAD CHANGE FOR EACH ITERATION:

    HEAD CHANGE   HEAD CHANGE   HEAD CHANGE   HEAD CHANGE   HEAD CHANGE
  LAYER,ROW,COL LAYER,ROW,COL LAYER,ROW,COL LAYER,ROW,COL LAYER,ROW,COL
 ----------------------------------------------------------------------
     -2.442        -1.062       -0.7054       -0.2683       -0.7281E-01
  (  1,  7,  1) (  1,  6,  8) (  1,  6,  5) (  1,  6,  5) (  1,  7,  5)
    -0.1109E-01   -0.7540E-02   -0.4579E-02   -0.1743E-02   -0.4798E-03
  (  1,  7,  8) (  1,  6,  5) (  1,  7,  5) (  1,  6,  5) (  1,  7,  5)


 OUTPUT CONTROL FOR STRESS PERIOD    1   TIME STEP   30
    PRINT BUDGET
    PRINT HEAD FOR ALL LAYERS
    SAVE BUDGET

            WELLS   PERIOD    1   STEP  30
 WELL      1   LAYER   1   ROW     6   COL     4   RATE   -10.00000    
 WELL      2   LAYER   1   ROW     6   COL     5   RATE   -10.00000    
 WELL      3   LAYER   1   ROW     7   COL     4   RATE   -10.00000    
 WELL      4   LAYER   1   ROW     7   COL     5   RATE   -10.00000    
 WELL      5   LAYER   1   ROW     8   COL     4   RATE   -10.00000    
 WELL      6   LAYER   1   ROW     8   COL     5   RATE   -10.00000    
 WELL      7   LAYER   1   ROW     9   COL     4   RATE   -10.00000    
 WELL      8   LAYER   1   ROW     9   COL     5   RATE   -10.00000    
 WELL      9   LAYER   1   ROW    10   COL     4   RATE   -10.00000    
 WELL     10   LAYER   1   ROW    10   COL     5   RATE   -10.00000    
 UBUDSV SAVING "              ET" ON UNIT 59 AT TIME STEP 30, STRESS PERIOD    1

  HEAD DEP BOUNDS   PERIOD    1   STEP  30
 BOUNDARY      1   LAYER   1   ROW    13   COL     1   RATE   -0.232225    
 BOUNDARY      2   LAYER   1   ROW    14   COL     9   RATE    0.216625    



 STREAM LISTING     PERIOD      1   STEP       30

 LAYER ROW COL. STREAM  RCH.  FLOW INTO     FLOW TO   FLOW OUT OF   OVRLND.     DIRECT     STREAM       STREAM     STREAM     STREAM   STREAMBED  STREAMBED
                SEG.NO.  NO.  STRM. RCH.    AQUIFER    STRM. RCH.    RUNOFF     PRECIP       ET          HEAD       DEPTH      WIDTH   CONDCTNC.   GRADIENT

   1    1    1     1     1    2.5000E+01  1.9662E+00   2.3034E+01  0.000E+00  0.000E+00  0.000E+00  1.09421E+03  1.165E+00  1.286E+01  5.789E-01  1.132E+00
   1    2    2     1     2    2.3034E+01  3.5435E+00   1.9490E+01  0.000E+00  0.000E+00  0.000E+00  1.08918E+03  1.121E+00  1.228E+01  8.598E-01  1.374E+00
   1    3    3     1     3    1.9490E+01  2.7872E+00   1.6703E+01  0.000E+00  0.000E+00  0.000E+00  1.08349E+03  1.069E+00  1.142E+01  6.850E-01  1.356E+00
   1    3    4     1     4    1.6703E+01  2.3614E+00   1.4342E+01  0.000E+00  0.000E+00  0.000E+00  1.07843E+03  1.022E+00  1.058E+01  5.871E-01  1.341E+00
   1    4    5     2     1    4.3418E+00  2.6060E+00   1.7358E+00  0.000E+00  0.000E+00  0.000E+00  1.07228E+03  3.410E-01  1.200E+01  7.800E-01  1.114E+00
   1    5    6     2     2    1.7358E+00  1.7358E+00   0.0000E+00  0.000E+00  0.000E+00  0.000E+00  1.06656E+03  5.483E-02  1.200E+01  6.000E-01  1.018E+00
   1    6    6     2     3    0.0000E+00  0.0000E+00   0.0000E+00  0.000E+00  0.000E+00  0.000E+00  1.06179E+03  0.000E+00  1.200E+01  6.000E-01  1.000E+00
   1    7    6     2     4    0.0000E+00  0.0000E+00   0.0000E+00  0.000E+00  0.000E+00  0.000E+00  1.05708E+03  0.000E+00  1.200E+01  6.000E-01  1.000E+00
   1    8    6     2     5    0.0000E+00  0.0000E+00   0.0000E+00  0.000E+00  0.000E+00  0.000E+00  1.05236E+03  0.000E+00  1.200E+01  6.000E-01  1.000E+00
   1    3    5     3     1    1.0000E+01  2.8252E+00   7.1748E+00  0.000E+00  0.000E+00  0.000E+00  1.07555E+03  1.909E+00  9.636E+00  7.227E-01  1.955E+00
   1    3    6     3     2    7.1748E+00  2.4905E+00   4.6843E+00  0.000E+00  0.000E+00  0.000E+00  1.07264E+03  1.727E+00  8.909E+00  6.682E-01  1.864E+00
   1    3    7     3     3    4.6843E+00  1.9718E+00   2.7125E+00  0.000E+00  0.000E+00  0.000E+00  1.06987E+03  1.555E+00  8.218E+00  5.547E-01  1.777E+00
   1    4    8     3     4    2.7125E+00  2.2567E+00   4.5579E-01  0.000E+00  0.000E+00  0.000E+00  1.06682E+03  1.364E+00  7.455E+00  6.709E-01  1.682E+00
   1    5    8     3     5    4.5579E-01  4.5579E-01   0.0000E+00  0.000E+00  0.000E+00  0.000E+00  1.06362E+03  0.000E+00  6.655E+00  4.991E-01  1.582E+00
   1    6    8     3     6    0.0000E+00  0.0000E+00   0.0000E+00  0.000E+00  0.000E+00  0.000E+00  1.06055E+03  0.000E+00  6.145E+00  1.844E-01  1.000E+00
   1    5   10     4     1    1.0000E+01  9.0525E-01   9.0947E+00  0.000E+00  0.000E+00  0.000E+00  1.07835E+03  6.210E-01  1.000E+01  2.500E-01  1.207E+00
   1    5    9     4     2    9.0947E+00  1.7835E+00   7.3113E+00  0.000E+00  0.000E+00  0.000E+00  1.07148E+03  5.670E-01  1.000E+01  5.000E-01  1.189E+00
   1    6    8     4     3    7.3113E+00  1.2257E+00   6.0855E+00  0.000E+00  0.000E+00  0.000E+00  1.06368E+03  5.021E-01  1.000E+01  3.500E-01  1.167E+00
   1    6    8     5     1    6.0855E+00  1.4717E+00   4.6139E+00  0.000E+00  0.000E+00  0.000E+00  1.05854E+03  5.396E-01  1.039E+01  4.158E-01  1.180E+00
   1    7    7     5     2    4.6139E+00  1.4899E+00   3.1240E+00  0.000E+00  0.000E+00  0.000E+00  1.05398E+03  4.817E-01  8.558E+00  4.279E-01  1.161E+00
   1    8    7     5     3    3.1240E+00  8.2856E-01   2.2955E+00  0.000E+00  0.000E+00  0.000E+00  1.04968E+03  4.253E-01  6.911E+00  2.419E-01  1.142E+00
   1    8    6     5     4    2.2955E+00  4.9460E-01   1.8009E+00  0.000E+00  0.000E+00  0.000E+00  1.04664E+03  3.856E-01  5.844E+00  1.461E-01  1.129E+00
   1    9    6     6     1    1.8009E+00  1.8009E+00   0.0000E+00  0.000E+00  0.000E+00  0.000E+00  1.04278E+03  5.668E-02  1.200E+01  6.000E-01  1.019E+00
   1   10    7     6     2    0.0000E+00  0.0000E+00   0.0000E+00  0.000E+00  0.000E+00  0.000E+00  1.03818E+03  0.000E+00  1.200E+01  6.000E-01  1.000E+00
   1   11    7     6     3    0.0000E+00  0.0000E+00   0.0000E+00  0.000E+00  0.000E+00  0.000E+00  1.03364E+03  0.000E+00  1.200E+01  6.000E-01  1.000E+00
   1   12    7     6     4    0.0000E+00  0.0000E+00   0.0000E+00  0.000E+00  0.000E+00  0.000E+00  1.02909E+03  0.000E+00  1.200E+01  6.000E-01  1.000E+00
   1   13    7     6     5    0.0000E+00 -4.8290E-01   4.8290E-01  0.000E+00  0.000E+00  0.000E+00  1.02598E+03  7.545E-02  1.200E+01  2.400E-01 -6.707E-01
   1   14    9     7     1    1.5000E+02  3.1543E+00   1.4685E+02  0.000E+00  0.000E+00  0.000E+00  1.03986E+03  2.283E+00  5.527E+01  5.591E+00  1.881E-01
   1   13    8     7     2    1.4685E+02  5.4918E+00   1.4135E+02  0.000E+00  0.000E+00  0.000E+00  1.03476E+03  2.260E+00  5.517E+01  6.137E+00  2.983E-01
   1   13    7     7     3    1.4135E+02  9.1328E+00   1.3222E+02  0.000E+00  0.000E+00  0.000E+00  1.02964E+03  2.220E+00  5.499E+01  5.560E+00  5.476E-01
   1   13    6     8     1    1.3270E+02  8.7739E+00   1.2393E+02  0.000E+00  0.000E+00  0.000E+00  1.02453E+03  2.657E+00  3.852E+01  3.925E+00  7.450E-01
   1   13    5     8     2    1.2393E+02  7.4062E+00   1.1652E+02  0.000E+00  0.000E+00  0.000E+00  1.01822E+03  2.593E+00  3.759E+01  3.831E+00  6.444E-01
   1   13    4     8     3    1.1652E+02  4.7248E+00   1.1180E+02  0.000E+00  0.000E+00  0.000E+00  1.01192E+03  2.543E+00  3.687E+01  3.757E+00  4.192E-01
   1   13    3     8     4    1.1180E+02  1.7223E+00   1.1008E+02  0.000E+00  0.000E+00  0.000E+00  1.00564E+03  2.516E+00  3.648E+01  3.717E+00  1.545E-01
   1   13    2     8     5    1.1008E+02  8.2562E-02   1.0999E+02  0.000E+00  0.000E+00  0.000E+00  9.99383E+02  2.508E+00  3.636E+01  3.706E+00  7.427E-03
   1   13    1     8     6    1.0999E+02  5.9690E-01   1.0940E+02  0.000E+00  0.000E+00  0.000E+00  9.94380E+02  2.505E+00  3.632E+01  2.221E+00  8.959E-02



1
              HEAD IN LAYER   1 AT END OF TIME STEP  30 IN STRESS PERIOD    1
  ---------------------------------------------------------------------------

           1       2       3       4       5       6       7       8       9      10
 ...................................................................................
   1  1090.82 1081.49 6999.00 6999.00 6999.00 6999.00 6999.00 6999.00 6999.00 6999.00
   2  1082.86 1072.87 1059.68 6999.00 6999.00 1053.10 1055.92 1057.47 6999.00 6999.00
   3  6999.00 1056.82 1048.61 1040.14 1040.35 1044.23 1050.22 1051.18 6999.00 6999.00
   4  1043.12 1041.30 1035.41 1027.42 1025.36 1025.49 1032.11 1043.03 1042.20 6999.00
   5  1035.59 1028.24 1020.24 1014.03 1014.44 1018.22 1021.60 1027.59 1036.00 1042.35
   6  1026.76 1017.06 1006.45  997.75 1000.39 1009.17 1015.89 1022.39 1031.16 1041.44
   7  1020.56 1007.97  996.34  987.21  991.24 1001.95 1010.32 1016.69 1025.56 6999.00
   8  6999.00  999.24  989.66  980.97  985.97  997.09 1004.25 1012.67 1022.15 6999.00
   9  6999.00  995.44  987.77  980.22  985.40  996.02 1001.78 1009.75 1019.70 6999.00
  10  6999.00  996.25  991.10  985.39  989.58  998.30 1003.46 1010.75 1020.26 1028.29
  11  6999.00  999.54  998.79  997.18  999.91 1004.77 1008.82 1015.18 1021.98 6999.00
  12   997.53 1000.93 1004.02 1005.05 1008.41 1012.82 1016.90 1023.95 1028.82 6999.00
  13   994.11  999.36 1005.18 1010.66 1016.28 1022.30 1028.00 1033.86 1035.52 6999.00
  14  6999.00 1003.18 1007.57 1011.91 1016.99 1022.45 1028.51 1034.82 1039.30 6999.00
  15  6999.00 6999.00 1010.81 1013.81 1017.76 1021.12 6999.00 6999.00 6999.00 6999.00
1
  VOLUMETRIC BUDGET FOR ENTIRE MODEL AT END OF TIME STEP   30, STRESS PERIOD   1
  ------------------------------------------------------------------------------

     CUMULATIVE VOLUMES      L**3       RATES FOR THIS TIME STEP      L**3/T
     ------------------                 ------------------------

           IN:                                      IN:
           ---                                      ---
             STORAGE = 12163899392.0000               STORAGE =          38.5413
       CONSTANT HEAD =           0.0000         CONSTANT HEAD =           0.0000
               WELLS =           0.0000                 WELLS =           0.0000
                  ET =           0.0000                    ET =           0.0000
     HEAD DEP BOUNDS =    48155664.0000       HEAD DEP BOUNDS =           0.2166
            RECHARGE =   400006400.0000              RECHARGE =           1.7937
      STREAM LEAKAGE = 14269914112.0000        STREAM LEAKAGE =          76.0856

            TOTAL IN = 26881974272.0000              TOTAL IN =         116.6373

          OUT:                                     OUT:
          ----                                     ----
             STORAGE =     1744137.2500               STORAGE =           0.0000
       CONSTANT HEAD =           0.0000         CONSTANT HEAD =           0.0000
               WELLS = 22300008448.0000                 WELLS =         100.0000
                  ET =  4097463040.0000                    ET =          15.9238
     HEAD DEP BOUNDS =    53146204.0000       HEAD DEP BOUNDS =           0.2322
            RECHARGE =           0.0000              RECHARGE =           0.0000
      STREAM LEAKAGE =   430371168.0000        STREAM LEAKAGE =           0.4829

           TOTAL OUT = 26882734080.0000             TOTAL OUT =         116.6390

            IN - OUT =     -759808.0000              IN - OUT =      -1.7014E-03

 PERCENT DISCREPANCY =          -0.00     PERCENT DISCREPANCY =          -0.00






         TIME SUMMARY AT END OF TIME STEP   30 IN STRESS PERIOD    1
                    SECONDS     MINUTES      HOURS       DAYS        YEARS
                    -----------------------------------------------------------
   TIME STEP LENGTH 2.15052E+07 3.58420E+05  5973.7      248.90     0.68146    
 STRESS PERIOD TIME 2.23000E+08 3.71667E+06  61944.      2581.0      7.0664    
         TOTAL TIME 2.23000E+08 3.71667E+06  61944.      2581.0      7.0664    
1
 
 SOLVING FOR HEAD 
    10 ITERATIONS FOR TIME STEP  31 IN STRESS PERIOD    1

 MAXIMUM HEAD CHANGE FOR EACH ITERATION:

    HEAD CHANGE   HEAD CHANGE   HEAD CHANGE   HEAD CHANGE   HEAD CHANGE
  LAYER,ROW,COL LAYER,ROW,COL LAYER,ROW,COL LAYER,ROW,COL LAYER,ROW,COL
 ----------------------------------------------------------------------
     -2.518        -1.106       -0.7681       -0.3025       -0.8453E-01
  (  1,  7,  1) (  1,  6,  8) (  1,  5,  5) (  1,  6,  5) (  1,  2,  3)
    -0.1282E-01   -0.8833E-02   -0.5601E-02   -0.2228E-02   -0.6262E-03
  (  1,  7,  8) (  1,  6,  5) (  1,  7,  5) (  1,  6,  5) (  1,  7,  5)


 NO OUTPUT CONTROL FOR STRESS PERIOD    1   TIME STEP   31
 
 SOLVING FOR HEAD 
    11 ITERATIONS FOR TIME STEP  32 IN STRESS PERIOD    1

 MAXIMUM HEAD CHANGE FOR EACH ITERATION:

    HEAD CHANGE   HEAD CHANGE   HEAD CHANGE   HEAD CHANGE   HEAD CHANGE
  LAYER,ROW,COL LAYER,ROW,COL LAYER,ROW,COL LAYER,ROW,COL LAYER,ROW,COL
 ----------------------------------------------------------------------
     -2.585        -1.146       -0.8322       -0.3393       -0.9954E-01
  (  1,  7,  1) (  1,  6,  8) (  1,  5,  5) (  1,  6,  5) (  1,  2,  3)
    -0.1479E-01   -0.1030E-01   -0.6823E-02   -0.2837E-02   -0.8149E-03
  (  1,  7,  8) (  1,  6,  5) (  1,  7,  5) (  1,  6,  5) (  1,  7,  5)
    -0.2444E-03
  (  1,  2,  3)


 NO OUTPUT CONTROL FOR STRESS PERIOD    1   TIME STEP   32
 
 SOLVING FOR HEAD 
    11 ITERATIONS FOR TIME STEP  33 IN STRESS PERIOD    1

 MAXIMUM HEAD CHANGE FOR EACH ITERATION:

    HEAD CHANGE   HEAD CHANGE   HEAD CHANGE   HEAD CHANGE   HEAD CHANGE
  LAYER,ROW,COL LAYER,ROW,COL LAYER,ROW,COL LAYER,ROW,COL LAYER,ROW,COL
 ----------------------------------------------------------------------
     -2.642        -1.176       -0.8829       -0.3707       -0.1158    
  (  1,  7,  1) (  1,  6,  8) (  1,  5,  5) (  1,  6,  5) (  1,  2,  3)
    -0.1701E-01   -0.1164E-01   -0.8061E-02   -0.3497E-02   -0.1024E-02
  (  1,  6,  9) (  1,  6,  5) (  1,  7,  5) (  1,  6,  5) (  1,  7,  5)
    -0.3074E-03
  (  1,  2,  3)


 OUTPUT CONTROL FOR STRESS PERIOD    1   TIME STEP   33
    PRINT BUDGET
    PRINT HEAD FOR ALL LAYERS
    SAVE BUDGET

            WELLS   PERIOD    1   STEP  33
 WELL      1   LAYER   1   ROW     6   COL     4   RATE   -10.00000    
 WELL      2   LAYER   1   ROW     6   COL     5   RATE   -10.00000    
 WELL      3   LAYER   1   ROW     7   COL     4   RATE   -10.00000    
 WELL      4   LAYER   1   ROW     7   COL     5   RATE   -10.00000    
 WELL      5   LAYER   1   ROW     8   COL     4   RATE   -10.00000    
 WELL      6   LAYER   1   ROW     8   COL     5   RATE   -10.00000    
 WELL      7   LAYER   1   ROW     9   COL     4   RATE   -10.00000    
 WELL      8   LAYER   1   ROW     9   COL     5   RATE   -10.00000    
 WELL      9   LAYER   1   ROW    10   COL     4   RATE   -10.00000    
 WELL     10   LAYER   1   ROW    10   COL     5   RATE   -10.00000    
 UBUDSV SAVING "              ET" ON UNIT 59 AT TIME STEP 33, STRESS PERIOD    1

  HEAD DEP BOUNDS   PERIOD    1   STEP  33
 BOUNDARY      1   LAYER   1   ROW    13   COL     1   RATE   -0.229499    
 BOUNDARY      2   LAYER   1   ROW    14   COL     9   RATE    0.217003    



 STREAM LISTING     PERIOD      1   STEP       33

 LAYER ROW COL. STREAM  RCH.  FLOW INTO     FLOW TO   FLOW OUT OF   OVRLND.     DIRECT     STREAM       STREAM     STREAM     STREAM   STREAMBED  STREAMBED
                SEG.NO.  NO.  STRM. RCH.    AQUIFER    STRM. RCH.    RUNOFF     PRECIP       ET          HEAD       DEPTH      WIDTH   CONDCTNC.   GRADIENT

   1    1    1     1     1    2.5000E+01  2.4011E+00   2.2599E+01  0.000E+00  0.000E+00  0.000E+00  1.09421E+03  1.162E+00  1.282E+01  5.769E-01  1.387E+00
   1    2    2     1     2    2.2599E+01  3.5108E+00   1.9088E+01  0.000E+00  0.000E+00  0.000E+00  1.08917E+03  1.114E+00  1.219E+01  8.533E-01  1.371E+00
   1    3    3     1     3    1.9088E+01  2.7530E+00   1.6335E+01  0.000E+00  0.000E+00  0.000E+00  1.08348E+03  1.062E+00  1.130E+01  6.778E-01  1.354E+00
   1    3    4     1     4    1.6335E+01  2.3306E+00   1.4004E+01  0.000E+00  0.000E+00  0.000E+00  1.07842E+03  1.015E+00  1.046E+01  5.804E-01  1.338E+00
   1    4    5     2     1    4.0044E+00  2.5883E+00   1.4161E+00  0.000E+00  0.000E+00  0.000E+00  1.07225E+03  3.184E-01  1.200E+01  7.800E-01  1.106E+00
   1    5    6     2     2    1.4161E+00  1.4161E+00   0.0000E+00  0.000E+00  0.000E+00  0.000E+00  1.06656E+03  4.853E-02  1.200E+01  6.000E-01  1.016E+00
   1    6    6     2     3    0.0000E+00  0.0000E+00   0.0000E+00  0.000E+00  0.000E+00  0.000E+00  1.06179E+03  0.000E+00  1.200E+01  6.000E-01  1.000E+00
   1    7    6     2     4    0.0000E+00  0.0000E+00   0.0000E+00  0.000E+00  0.000E+00  0.000E+00  1.05708E+03  0.000E+00  1.200E+01  6.000E-01  1.000E+00
   1    8    6     2     5    0.0000E+00  0.0000E+00   0.0000E+00  0.000E+00  0.000E+00  0.000E+00  1.05236E+03  0.000E+00  1.200E+01  6.000E-01  1.000E+00
   1    3    5     3     1    1.0000E+01  2.8252E+00   7.1748E+00  0.000E+00  0.000E+00  0.000E+00  1.07555E+03  1.909E+00  9.636E+00  7.227E-01  1.955E+00
   1    3    6     3     2    7.1748E+00  2.4905E+00   4.6843E+00  0.000E+00  0.000E+00  0.000E+00  1.07264E+03  1.727E+00  8.909E+00  6.682E-01  1.864E+00
   1    3    7     3     3    4.6843E+00  1.9718E+00   2.7125E+00  0.000E+00  0.000E+00  0.000E+00  1.06987E+03  1.555E+00  8.218E+00  5.547E-01  1.777E+00
   1    4    8     3     4    2.7125E+00  2.2567E+00   4.5579E-01  0.000E+00  0.000E+00  0.000E+00  1.06682E+03  1.364E+00  7.455E+00  6.709E-01  1.682E+00
   1    5    8     3     5    4.5579E-01  4.5579E-01   0.0000E+00  0.000E+00  0.000E+00  0.000E+00  1.06362E+03  0.000E+00  6.655E+00  4.991E-01  1.582E+00
   1    6    8     3     6    0.0000E+00  0.0000E+00   0.0000E+00  0.000E+00  0.000E+00  0.000E+00  1.06055E+03  0.000E+00  6.145E+00  1.844E-01  1.000E+00
   1    5   10     4     1    1.0000E+01  9.0525E-01   9.0947E+00  0.000E+00  0.000E+00  0.000E+00  1.07835E+03  6.210E-01  1.000E+01  2.500E-01  1.207E+00
   1    5    9     4     2    9.0947E+00  1.7835E+00   7.3113E+00  0.000E+00  0.000E+00  0.000E+00  1.07148E+03  5.670E-01  1.000E+01  5.000E-01  1.189E+00
   1    6    8     4     3    7.3113E+00  1.2257E+00   6.0855E+00  0.000E+00  0.000E+00  0.000E+00  1.06368E+03  5.021E-01  1.000E+01  3.500E-01  1.167E+00
   1    6    8     5     1    6.0855E+00  1.4717E+00   4.6139E+00  0.000E+00  0.000E+00  0.000E+00  1.05854E+03  5.396E-01  1.039E+01  4.158E-01  1.180E+00
   1    7    7     5     2    4.6139E+00  1.4899E+00   3.1240E+00  0.000E+00  0.000E+00  0.000E+00  1.05398E+03  4.817E-01  8.558E+00  4.279E-01  1.161E+00
   1    8    7     5     3    3.1240E+00  8.2856E-01   2.2955E+00  0.000E+00  0.000E+00  0.000E+00  1.04968E+03  4.253E-01  6.911E+00  2.419E-01  1.142E+00
   1    8    6     5     4    2.2955E+00  4.9460E-01   1.8009E+00  0.000E+00  0.000E+00  0.000E+00  1.04664E+03  3.856E-01  5.844E+00  1.461E-01  1.129E+00
   1    9    6     6     1    1.8009E+00  1.8009E+00   0.0000E+00  0.000E+00  0.000E+00  0.000E+00  1.04278E+03  5.668E-02  1.200E+01  6.000E-01  1.019E+00
   1   10    7     6     2    0.0000E+00  0.0000E+00   0.0000E+00  0.000E+00  0.000E+00  0.000E+00  1.03818E+03  0.000E+00  1.200E+01  6.000E-01  1.000E+00
   1   11    7     6     3    0.0000E+00  0.0000E+00   0.0000E+00  0.000E+00  0.000E+00  0.000E+00  1.03364E+03  0.000E+00  1.200E+01  6.000E-01  1.000E+00
   1   12    7     6     4    0.0000E+00  0.0000E+00   0.0000E+00  0.000E+00  0.000E+00  0.000E+00  1.02909E+03  0.000E+00  1.200E+01  6.000E-01  1.000E+00
   1   13    7     6     5    0.0000E+00 -4.3876E-01   4.3876E-01  0.000E+00  0.000E+00  0.000E+00  1.02598E+03  7.123E-02  1.200E+01  2.400E-01 -6.094E-01
   1   14    9     7     1    1.5000E+02  3.2092E+00   1.4679E+02  0.000E+00  0.000E+00  0.000E+00  1.03986E+03  2.283E+00  5.527E+01  5.591E+00  1.913E-01
   1   13    8     7     2    1.4679E+02  5.8235E+00   1.4097E+02  0.000E+00  0.000E+00  0.000E+00  1.03476E+03  2.259E+00  5.516E+01  6.137E+00  3.163E-01
   1   13    7     7     3    1.4097E+02  1.0147E+01   1.3082E+02  0.000E+00  0.000E+00  0.000E+00  1.02963E+03  2.215E+00  5.497E+01  5.557E+00  6.086E-01
   1   13    6     8     1    1.3126E+02  9.9013E+00   1.2136E+02  0.000E+00  0.000E+00  0.000E+00  1.02452E+03  2.641E+00  3.829E+01  3.902E+00  8.458E-01
   1   13    5     8     2    1.2136E+02  8.6320E+00   1.1273E+02  0.000E+00  0.000E+00  0.000E+00  1.01819E+03  2.567E+00  3.722E+01  3.792E+00  7.587E-01
   1   13    4     8     3    1.1273E+02  5.7532E+00   1.0697E+02  0.000E+00  0.000E+00  0.000E+00  1.01188E+03  2.506E+00  3.634E+01  3.703E+00  5.178E-01
   1   13    3     8     4    1.0697E+02  2.3851E+00   1.0459E+02  0.000E+00  0.000E+00  0.000E+00  1.00560E+03  2.471E+00  3.583E+01  3.651E+00  2.177E-01
   1   13    2     8     5    1.0459E+02  2.6959E-01   1.0432E+02  0.000E+00  0.000E+00  0.000E+00  9.99334E+02  2.459E+00  3.566E+01  3.634E+00  2.473E-02
   1   13    1     8     6    1.0432E+02  6.3330E-01   1.0368E+02  0.000E+00  0.000E+00  0.000E+00  9.94330E+02  2.455E+00  3.560E+01  2.177E+00  9.698E-02



1
              HEAD IN LAYER   1 AT END OF TIME STEP  33 IN STRESS PERIOD    1
  ---------------------------------------------------------------------------

           1       2       3       4       5       6       7       8       9      10
 ...................................................................................
   1  1089.24 1077.16 6999.00 6999.00 6999.00 6999.00 6999.00 6999.00 6999.00 6999.00
   2  1078.75 1066.20 1051.45 6999.00 6999.00 1043.62 1046.60 1048.31 6999.00 6999.00
   3  6999.00 1048.36 1039.34 1030.47 1030.56 1034.44 1040.55 1041.55 6999.00 6999.00
   4  1032.99 1031.50 1025.59 1017.45 1015.29 1015.34 1022.05 1033.28 1032.18 6999.00
   5  1025.08 1017.80 1010.04 1003.93 1004.34 1008.05 1011.52 1017.49 1025.86 1032.41
   6  1015.94 1006.43  996.21  987.71  990.45  999.34 1006.08 1012.51 1021.03 1031.39
   7  1009.67  997.57  986.49  977.64  981.85  992.71 1001.04 1007.08 1015.88 6999.00
   8  6999.00  989.86  980.73  972.31  977.53  988.83  995.96 1003.85 1013.23 6999.00
   9  6999.00  987.56  980.27  972.94  978.28  989.03  994.81 1002.45 1012.24 6999.00
  10  6999.00  990.30  985.43  979.78  983.98  992.77  997.96 1005.15 1014.54 1022.40
  11  6999.00  995.90  995.36  993.39  996.02 1000.87 1004.96 1011.39 1018.19 6999.00
  12   996.84  999.58 1002.52 1003.05 1006.28 1010.68 1014.85 1022.28 1027.25 6999.00
  13   994.04  999.26 1004.94 1010.33 1015.92 1021.98 1027.81 1033.81 1035.35 6999.00
  14  6999.00 1002.97 1007.28 1011.55 1016.62 1022.13 1028.32 1034.75 1039.29 6999.00
  15  6999.00 6999.00 1010.42 1013.39 1017.34 1020.72 6999.00 6999.00 6999.00 6999.00
1
  VOLUMETRIC BUDGET FOR ENTIRE MODEL AT END OF TIME STEP   33, STRESS PERIOD   1
  ------------------------------------------------------------------------------

     CUMULATIVE VOLUMES      L**3       RATES FOR THIS TIME STEP      L**3/T
     ------------------                 ------------------------

           IN:                                      IN:
           ---                                      ---
             STORAGE = 14859580416.0000               STORAGE =          32.5321
       CONSTANT HEAD =           0.0000         CONSTANT HEAD =           0.0000
               WELLS =           0.0000                 WELLS =           0.0000
                  ET =           0.0000                    ET =           0.0000
     HEAD DEP BOUNDS =    65137664.0000       HEAD DEP BOUNDS =           0.2170
            RECHARGE =   540457600.0000              RECHARGE =           1.7937
      STREAM LEAKAGE = 20531347456.0000        STREAM LEAKAGE =          81.7543

            TOTAL IN = 35996520448.0000              TOTAL IN =         116.2971

          OUT:                                     OUT:
          ----                                     ----
             STORAGE =     1744137.2500               STORAGE =           0.0000
       CONSTANT HEAD =           0.0000         CONSTANT HEAD =           0.0000
               WELLS = 30130040832.0000                 WELLS =         100.0000
                  ET =  5328641536.0000                    ET =          15.6311
     HEAD DEP BOUNDS =    71183480.0000       HEAD DEP BOUNDS =           0.2295
            RECHARGE =           0.0000              RECHARGE =           0.0000
      STREAM LEAKAGE =   465821952.0000        STREAM LEAKAGE =           0.4388

           TOTAL OUT = 35997433856.0000             TOTAL OUT =         116.2993

            IN - OUT =     -913408.0000              IN - OUT =      -2.2202E-03

 PERCENT DISCREPANCY =          -0.00     PERCENT DISCREPANCY =          -0.00






         TIME SUMMARY AT END OF TIME STEP   33 IN STRESS PERIOD    1
                    SECONDS     MINUTES      HOURS       DAYS        YEARS
                    -----------------------------------------------------------
   TIME STEP LENGTH 2.86234E+07 4.77056E+05  7950.9      331.29     0.90702    
 STRESS PERIOD TIME 3.01300E+08 5.02167E+06  83695.      3487.3      9.5476    
         TOTAL TIME 3.01300E+08 5.02167E+06  83695.      3487.3      9.5476    
1
 
 SOLVING FOR HEAD 
    11 ITERATIONS FOR TIME STEP  34 IN STRESS PERIOD    1

 MAXIMUM HEAD CHANGE FOR EACH ITERATION:

    HEAD CHANGE   HEAD CHANGE   HEAD CHANGE   HEAD CHANGE   HEAD CHANGE
  LAYER,ROW,COL LAYER,ROW,COL LAYER,ROW,COL LAYER,ROW,COL LAYER,ROW,COL
 ----------------------------------------------------------------------
     -2.686        -1.194       -0.9336       -0.4068       -0.1326    
  (  1,  7,  1) (  1,  6,  8) (  1,  5,  5) (  1,  6,  5) (  1,  2,  3)
    -0.2051E-01   -0.1345E-01   -0.9619E-02   -0.4370E-02   -0.1310E-02
  (  1,  6,  9) (  1,  3,  4) (  1,  7,  5) (  1,  6,  5) (  1,  7,  5)
    -0.3948E-03
  (  1,  2,  3)


 NO OUTPUT CONTROL FOR STRESS PERIOD    1   TIME STEP   34
 
 SOLVING FOR HEAD 
    11 ITERATIONS FOR TIME STEP  35 IN STRESS PERIOD    1

 MAXIMUM HEAD CHANGE FOR EACH ITERATION:

    HEAD CHANGE   HEAD CHANGE   HEAD CHANGE   HEAD CHANGE   HEAD CHANGE
  LAYER,ROW,COL LAYER,ROW,COL LAYER,ROW,COL LAYER,ROW,COL LAYER,ROW,COL
 ----------------------------------------------------------------------
     -2.716        -1.203       -0.9842       -0.4437       -0.1533    
  (  1,  7,  1) (  1,  6,  8) (  1,  5,  5) (  1,  6,  5) (  1,  2,  3)
    -0.2460E-01   -0.1551E-01   -0.1136E-01   -0.5411E-02   -0.1660E-02
  (  1,  6,  9) (  1,  3,  4) (  1,  7,  5) (  1,  6,  5) (  1,  7,  5)
    -0.5044E-03
  (  1,  2,  3)


 OUTPUT CONTROL FOR STRESS PERIOD    1   TIME STEP   35
    PRINT BUDGET
    PRINT HEAD FOR ALL LAYERS
    SAVE BUDGET

            WELLS   PERIOD    1   STEP  35
 WELL      1   LAYER   1   ROW     6   COL     4   RATE   -10.00000    
 WELL      2   LAYER   1   ROW     6   COL     5   RATE   -10.00000    
 WELL      3   LAYER   1   ROW     7   COL     4   RATE   -10.00000    
 WELL      4   LAYER   1   ROW     7   COL     5   RATE   -10.00000    
 WELL      5   LAYER   1   ROW     8   COL     4   RATE   -10.00000    
 WELL      6   LAYER   1   ROW     8   COL     5   RATE   -10.00000    
 WELL      7   LAYER   1   ROW     9   COL     4   RATE   -10.00000    
 WELL      8   LAYER   1   ROW     9   COL     5   RATE   -10.00000    
 WELL      9   LAYER   1   ROW    10   COL     4   RATE   -10.00000    
 WELL     10   LAYER   1   ROW    10   COL     5   RATE   -10.00000    
 UBUDSV SAVING "              ET" ON UNIT 59 AT TIME STEP 35, STRESS PERIOD    1

  HEAD DEP BOUNDS   PERIOD    1   STEP  35
 BOUNDARY      1   LAYER   1   ROW    13   COL     1   RATE   -0.227613    
 BOUNDARY      2   LAYER   1   ROW    14   COL     9   RATE    0.217263    



 STREAM LISTING     PERIOD      1   STEP       35

 LAYER ROW COL. STREAM  RCH.  FLOW INTO     FLOW TO   FLOW OUT OF   OVRLND.     DIRECT     STREAM       STREAM     STREAM     STREAM   STREAMBED  STREAMBED
                SEG.NO.  NO.  STRM. RCH.    AQUIFER    STRM. RCH.    RUNOFF     PRECIP       ET          HEAD       DEPTH      WIDTH   CONDCTNC.   GRADIENT

   1    1    1     1     1    2.5000E+01  2.4011E+00   2.2599E+01  0.000E+00  0.000E+00  0.000E+00  1.09421E+03  1.162E+00  1.282E+01  5.769E-01  1.387E+00
   1    2    2     1     2    2.2599E+01  3.5108E+00   1.9088E+01  0.000E+00  0.000E+00  0.000E+00  1.08917E+03  1.114E+00  1.219E+01  8.533E-01  1.371E+00
   1    3    3     1     3    1.9088E+01  2.7530E+00   1.6335E+01  0.000E+00  0.000E+00  0.000E+00  1.08348E+03  1.062E+00  1.130E+01  6.778E-01  1.354E+00
   1    3    4     1     4    1.6335E+01  2.3306E+00   1.4004E+01  0.000E+00  0.000E+00  0.000E+00  1.07842E+03  1.015E+00  1.046E+01  5.804E-01  1.338E+00
   1    4    5     2     1    4.0044E+00  2.5883E+00   1.4161E+00  0.000E+00  0.000E+00  0.000E+00  1.07225E+03  3.184E-01  1.200E+01  7.800E-01  1.106E+00
   1    5    6     2     2    1.4161E+00  1.4161E+00   0.0000E+00  0.000E+00  0.000E+00  0.000E+00  1.06656E+03  4.853E-02  1.200E+01  6.000E-01  1.016E+00
   1    6    6     2     3    0.0000E+00  0.0000E+00   0.0000E+00  0.000E+00  0.000E+00  0.000E+00  1.06179E+03  0.000E+00  1.200E+01  6.000E-01  1.000E+00
   1    7    6     2     4    0.0000E+00  0.0000E+00   0.0000E+00  0.000E+00  0.000E+00  0.000E+00  1.05708E+03  0.000E+00  1.200E+01  6.000E-01  1.000E+00
   1    8    6     2     5    0.0000E+00  0.0000E+00   0.0000E+00  0.000E+00  0.000E+00  0.000E+00  1.05236E+03  0.000E+00  1.200E+01  6.000E-01  1.000E+00
   1    3    5     3     1    1.0000E+01  2.8252E+00   7.1748E+00  0.000E+00  0.000E+00  0.000E+00  1.07555E+03  1.909E+00  9.636E+00  7.227E-01  1.955E+00
   1    3    6     3     2    7.1748E+00  2.4905E+00   4.6843E+00  0.000E+00  0.000E+00  0.000E+00  1.07264E+03  1.727E+00  8.909E+00  6.682E-01  1.864E+00
   1    3    7     3     3    4.6843E+00  1.9718E+00   2.7125E+00  0.000E+00  0.000E+00  0.000E+00  1.06987E+03  1.555E+00  8.218E+00  5.547E-01  1.777E+00
   1    4    8     3     4    2.7125E+00  2.2567E+00   4.5579E-01  0.000E+00  0.000E+00  0.000E+00  1.06682E+03  1.364E+00  7.455E+00  6.709E-01  1.682E+00
   1    5    8     3     5    4.5579E-01  4.5579E-01   0.0000E+00  0.000E+00  0.000E+00  0.000E+00  1.06362E+03  0.000E+00  6.655E+00  4.991E-01  1.582E+00
   1    6    8     3     6    0.0000E+00  0.0000E+00   0.0000E+00  0.000E+00  0.000E+00  0.000E+00  1.06055E+03  0.000E+00  6.145E+00  1.844E-01  1.000E+00
   1    5   10     4     1    1.0000E+01  9.0525E-01   9.0947E+00  0.000E+00  0.000E+00  0.000E+00  1.07835E+03  6.210E-01  1.000E+01  2.500E-01  1.207E+00
   1    5    9     4     2    9.0947E+00  1.7835E+00   7.3113E+00  0.000E+00  0.000E+00  0.000E+00  1.07148E+03  5.670E-01  1.000E+01  5.000E-01  1.189E+00
   1    6    8     4     3    7.3113E+00  1.2257E+00   6.0855E+00  0.000E+00  0.000E+00  0.000E+00  1.06368E+03  5.021E-01  1.000E+01  3.500E-01  1.167E+00
   1    6    8     5     1    6.0855E+00  1.4717E+00   4.6139E+00  0.000E+00  0.000E+00  0.000E+00  1.05854E+03  5.396E-01  1.039E+01  4.158E-01  1.180E+00
   1    7    7     5     2    4.6139E+00  1.4899E+00   3.1240E+00  0.000E+00  0.000E+00  0.000E+00  1.05398E+03  4.817E-01  8.558E+00  4.279E-01  1.161E+00
   1    8    7     5     3    3.1240E+00  8.2856E-01   2.2955E+00  0.000E+00  0.000E+00  0.000E+00  1.04968E+03  4.253E-01  6.911E+00  2.419E-01  1.142E+00
   1    8    6     5     4    2.2955E+00  4.9460E-01   1.8009E+00  0.000E+00  0.000E+00  0.000E+00  1.04664E+03  3.856E-01  5.844E+00  1.461E-01  1.129E+00
   1    9    6     6     1    1.8009E+00  1.8009E+00   0.0000E+00  0.000E+00  0.000E+00  0.000E+00  1.04278E+03  5.668E-02  1.200E+01  6.000E-01  1.019E+00
   1   10    7     6     2    0.0000E+00  0.0000E+00   0.0000E+00  0.000E+00  0.000E+00  0.000E+00  1.03818E+03  0.000E+00  1.200E+01  6.000E-01  1.000E+00
   1   11    7     6     3    0.0000E+00  0.0000E+00   0.0000E+00  0.000E+00  0.000E+00  0.000E+00  1.03364E+03  0.000E+00  1.200E+01  6.000E-01  1.000E+00
   1   12    7     6     4    0.0000E+00  0.0000E+00   0.0000E+00  0.000E+00  0.000E+00  0.000E+00  1.02909E+03  0.000E+00  1.200E+01  6.000E-01  1.000E+00
   1   13    7     6     5    0.0000E+00 -4.0837E-01   4.0837E-01  0.000E+00  0.000E+00  0.000E+00  1.02598E+03  6.823E-02  1.200E+01  2.400E-01 -5.672E-01
   1   14    9     7     1    1.5000E+02  3.2468E+00   1.4675E+02  0.000E+00  0.000E+00  0.000E+00  1.03986E+03  2.283E+00  5.527E+01  5.591E+00  1.936E-01
   1   13    8     7     2    1.4675E+02  6.0507E+00   1.4070E+02  0.000E+00  0.000E+00  0.000E+00  1.03476E+03  2.258E+00  5.516E+01  6.136E+00  3.287E-01
   1   13    7     7     3    1.4070E+02  1.0845E+01   1.2986E+02  0.000E+00  0.000E+00  0.000E+00  1.02963E+03  2.212E+00  5.495E+01  5.556E+00  6.507E-01
   1   13    6     8     1    1.3027E+02  1.0673E+01   1.1959E+02  0.000E+00  0.000E+00  0.000E+00  1.02451E+03  2.630E+00  3.814E+01  3.886E+00  9.154E-01
   1   13    5     8     2    1.1959E+02  9.4679E+00   1.1012E+02  0.000E+00  0.000E+00  0.000E+00  1.01817E+03  2.549E+00  3.695E+01  3.766E+00  8.381E-01
   1   13    4     8     3    1.1012E+02  6.4503E+00   1.0367E+02  0.000E+00  0.000E+00  0.000E+00  1.01186E+03  2.481E+00  3.597E+01  3.666E+00  5.865E-01
   1   13    3     8     4    1.0367E+02  2.8308E+00   1.0084E+02  0.000E+00  0.000E+00  0.000E+00  1.00556E+03  2.440E+00  3.538E+01  3.605E+00  2.617E-01
   1   13    2     8     5    1.0084E+02  3.9339E-01   1.0045E+02  0.000E+00  0.000E+00  0.000E+00  9.99300E+02  2.425E+00  3.517E+01  3.584E+00  3.659E-02
   1   13    1     8     6    1.0045E+02  6.5625E-01   9.9794E+01  0.000E+00  0.000E+00  0.000E+00  9.94296E+02  2.421E+00  3.510E+01  2.146E+00  1.019E-01



1
              HEAD IN LAYER   1 AT END OF TIME STEP  35 IN STRESS PERIOD    1
  ---------------------------------------------------------------------------

           1       2       3       4       5       6       7       8       9      10
 ...................................................................................
   1  1086.11 1072.95 6999.00 6999.00 6999.00 6999.00 6999.00 6999.00 6999.00 6999.00
   2  1074.74 1060.83 1045.20 6999.00 6999.00 1036.40 1039.39 1041.09 6999.00 6999.00
   3  6999.00 1041.95 1032.51 1023.45 1023.49 1027.29 1033.36 1034.26 6999.00 6999.00
   4  1025.50 1024.27 1018.43 1010.27 1008.09 1008.11 1014.80 1026.18 1024.86 6999.00
   5  1017.39 1010.20 1002.68  996.72  997.16 1000.90 1004.35 1010.26 1018.54 1025.23
   6  1008.09  998.76  988.89  980.56  983.40  992.39  999.11 1005.47 1013.73 1024.07
   7  1001.83  990.15  979.51  970.86  975.20  986.19  994.47 1000.25 1008.97 6999.00
   8  6999.00  983.29  974.46  966.22  971.59  983.01  990.12  997.62 1006.91 6999.00
   9  6999.00  982.14  975.07  967.86  973.31  984.15  989.94  997.34 1007.02 6999.00
  10  6999.00  986.29  981.54  975.89  980.09  988.92  994.15 1001.26 1010.53 1018.13
  11  6999.00  993.47  993.03  990.77  993.33  998.18 1002.29 1008.77 1015.56 6999.00
  12   996.39  998.69 1001.49 1001.68 1004.82 1009.20 1013.43 1021.12 1026.17 6999.00
  13   993.99  999.19 1004.78 1010.10 1015.66 1021.76 1027.68 1033.77 1035.24 6999.00
  14  6999.00 1002.83 1007.07 1011.31 1016.36 1021.91 1028.19 1034.71 1039.28 6999.00
  15  6999.00 6999.00 1010.16 1013.11 1017.05 1020.45 6999.00 6999.00 6999.00 6999.00
1
  VOLUMETRIC BUDGET FOR ENTIRE MODEL AT END OF TIME STEP   35, STRESS PERIOD   1
  ------------------------------------------------------------------------------

     CUMULATIVE VOLUMES      L**3       RATES FOR THIS TIME STEP      L**3/T
     ------------------                 ------------------------

           IN:                                      IN:
           ---                                      ---
             STORAGE = 16804331520.0000               STORAGE =          28.4363
       CONSTANT HEAD =           0.0000         CONSTANT HEAD =           0.0000
               WELLS =           0.0000                 WELLS =           0.0000
                  ET =           0.0000                    ET =           0.0000
     HEAD DEP BOUNDS =    79499000.0000       HEAD DEP BOUNDS =           0.2173
            RECHARGE =   659060352.0000              RECHARGE =           1.7937
      STREAM LEAKAGE = 26131355648.0000        STREAM LEAKAGE =          85.6145

            TOTAL IN = 43674247168.0000              TOTAL IN =         116.0618

          OUT:                                     OUT:
          ----                                     ----
             STORAGE =     1744137.2500               STORAGE =           0.0000
       CONSTANT HEAD =           0.0000         CONSTANT HEAD =           0.0000
               WELLS = 36742041600.0000                 WELLS =         100.0000
                  ET =  6351972352.0000                    ET =          15.4284
     HEAD DEP BOUNDS =    86263168.0000       HEAD DEP BOUNDS =           0.2276
            RECHARGE =           0.0000              RECHARGE =           0.0000
      STREAM LEAKAGE =   493302688.0000        STREAM LEAKAGE =           0.4084

           TOTAL OUT = 43675324416.0000             TOTAL OUT =         116.0644

            IN - OUT =    -1077248.0000              IN - OUT =      -2.5940E-03

 PERCENT DISCREPANCY =          -0.00     PERCENT DISCREPANCY =          -0.00






         TIME SUMMARY AT END OF TIME STEP   35 IN STRESS PERIOD    1
                    SECONDS     MINUTES      HOURS       DAYS        YEARS
                    -----------------------------------------------------------
   TIME STEP LENGTH 3.46343E+07 5.77238E+05  9620.6      400.86      1.0975    
 STRESS PERIOD TIME 3.67420E+08 6.12367E+06 1.02061E+05  4252.6      11.643    
         TOTAL TIME 3.67420E+08 6.12367E+06 1.02061E+05  4252.6      11.643    
1
 
 SOLVING FOR HEAD 
    11 ITERATIONS FOR TIME STEP  36 IN STRESS PERIOD    1

 MAXIMUM HEAD CHANGE FOR EACH ITERATION:

    HEAD CHANGE   HEAD CHANGE   HEAD CHANGE   HEAD CHANGE   HEAD CHANGE
  LAYER,ROW,COL LAYER,ROW,COL LAYER,ROW,COL LAYER,ROW,COL LAYER,ROW,COL
 ----------------------------------------------------------------------
     -2.732        -1.203        -1.031       -0.4806       -0.1758    
  (  1,  7,  1) (  1,  6,  8) (  1,  5,  5) (  1,  6,  5) (  1,  2,  3)
    -0.2935E-01   -0.1776E-01   -0.1333E-01   -0.6650E-02   -0.2087E-02
  (  1,  6,  9) (  1,  3,  4) (  1,  7,  5) (  1,  6,  5) (  1,  7,  5)
    -0.6398E-03
  (  1,  2,  3)


 NO OUTPUT CONTROL FOR STRESS PERIOD    1   TIME STEP   36
 
 SOLVING FOR HEAD 
    12 ITERATIONS FOR TIME STEP  37 IN STRESS PERIOD    1

 MAXIMUM HEAD CHANGE FOR EACH ITERATION:

    HEAD CHANGE   HEAD CHANGE   HEAD CHANGE   HEAD CHANGE   HEAD CHANGE
  LAYER,ROW,COL LAYER,ROW,COL LAYER,ROW,COL LAYER,ROW,COL LAYER,ROW,COL
 ----------------------------------------------------------------------
     -2.733        -1.195        -1.072       -0.5167       -0.1997    
  (  1,  7,  1) (  1,  6,  8) (  1,  5,  5) (  1,  6,  5) (  1,  2,  3)
    -0.3483E-01   -0.2014E-01   -0.1551E-01   -0.8108E-02   -0.2613E-02
  (  1,  6,  9) (  1,  3,  4) (  1,  7,  5) (  1,  6,  5) (  1,  7,  5)
    -0.8036E-03   -0.2971E-03
  (  1,  2,  3) (  1,  4,  3)


 NO OUTPUT CONTROL FOR STRESS PERIOD    1   TIME STEP   37
 
 SOLVING FOR HEAD 
    12 ITERATIONS FOR TIME STEP  38 IN STRESS PERIOD    1

 MAXIMUM HEAD CHANGE FOR EACH ITERATION:

    HEAD CHANGE   HEAD CHANGE   HEAD CHANGE   HEAD CHANGE   HEAD CHANGE
  LAYER,ROW,COL LAYER,ROW,COL LAYER,ROW,COL LAYER,ROW,COL LAYER,ROW,COL
 ----------------------------------------------------------------------
     -2.721        -1.178        -1.106       -0.5509       -0.2245    
  (  1,  7,  1) (  1,  6,  8) (  1,  5,  5) (  1,  6,  5) (  1,  2,  3)
    -0.4106E-01   -0.2264E-01   -0.1790E-01   -0.9805E-02   -0.3245E-02
  (  1,  6,  9) (  1,  3,  4) (  1,  7,  5) (  1,  6,  5) (  1,  7,  4)
    -0.1003E-02   -0.3716E-03
  (  1,  2,  3) (  1,  4,  3)


 NO OUTPUT CONTROL FOR STRESS PERIOD    1   TIME STEP   38
 
 SOLVING FOR HEAD 
    12 ITERATIONS FOR TIME STEP  39 IN STRESS PERIOD    1

 MAXIMUM HEAD CHANGE FOR EACH ITERATION:

    HEAD CHANGE   HEAD CHANGE   HEAD CHANGE   HEAD CHANGE   HEAD CHANGE
  LAYER,ROW,COL LAYER,ROW,COL LAYER,ROW,COL LAYER,ROW,COL LAYER,ROW,COL
 ----------------------------------------------------------------------
     -2.699        -1.152        -1.131       -0.5822       -0.2497    
  (  1,  4,  1) (  1,  6,  8) (  1,  5,  5) (  1,  6,  5) (  1,  2,  3)
    -0.4808E-01   -0.2517E-01   -0.2047E-01   -0.1175E-01   -0.4010E-02
  (  1,  6,  9) (  1,  3,  4) (  1,  7,  5) (  1,  6,  5) (  1,  7,  4)
    -0.1237E-02   -0.4599E-03
  (  1,  2,  3) (  1,  4,  3)


 NO OUTPUT CONTROL FOR STRESS PERIOD    1   TIME STEP   39
 
 SOLVING FOR HEAD 
    12 ITERATIONS FOR TIME STEP  40 IN STRESS PERIOD    1

 MAXIMUM HEAD CHANGE FOR EACH ITERATION:

    HEAD CHANGE   HEAD CHANGE   HEAD CHANGE   HEAD CHANGE   HEAD CHANGE
  LAYER,ROW,COL LAYER,ROW,COL LAYER,ROW,COL LAYER,ROW,COL LAYER,ROW,COL
 ----------------------------------------------------------------------
     -2.670        -1.127        -1.150       -0.6094       -0.2746    
  (  1,  4,  1) (  1,  6,  9) (  1,  3,  4) (  1,  6,  5) (  1,  2,  3)
    -0.5588E-01   -0.2768E-01   -0.2318E-01   -0.1393E-01   -0.4913E-02
  (  1,  6,  9) (  1,  3,  4) (  1,  7,  5) (  1,  6,  5) (  1,  7,  4)
    -0.1513E-02   -0.5635E-03
  (  1,  2,  3) (  1,  4,  3)


 OUTPUT CONTROL FOR STRESS PERIOD    1   TIME STEP   40
    PRINT BUDGET
    PRINT HEAD FOR ALL LAYERS
    SAVE BUDGET

            WELLS   PERIOD    1   STEP  40
 WELL      1   LAYER   1   ROW     6   COL     4   RATE   -10.00000    
 WELL      2   LAYER   1   ROW     6   COL     5   RATE   -10.00000    
 WELL      3   LAYER   1   ROW     7   COL     4   RATE   -10.00000    
 WELL      4   LAYER   1   ROW     7   COL     5   RATE   -10.00000    
 WELL      5   LAYER   1   ROW     8   COL     4   RATE   -10.00000    
 WELL      6   LAYER   1   ROW     8   COL     5   RATE   -10.00000    
 WELL      7   LAYER   1   ROW     9   COL     4   RATE   -10.00000    
 WELL      8   LAYER   1   ROW     9   COL     5   RATE   -10.00000    
 WELL      9   LAYER   1   ROW    10   COL     4   RATE   -10.00000    
 WELL     10   LAYER   1   ROW    10   COL     5   RATE   -10.00000    
 UBUDSV SAVING "              ET" ON UNIT 59 AT TIME STEP 40, STRESS PERIOD    1

  HEAD DEP BOUNDS   PERIOD    1   STEP  40
 BOUNDARY      1   LAYER   1   ROW    13   COL     1   RATE   -0.222858    
 BOUNDARY      2   LAYER   1   ROW    14   COL     9   RATE    0.217886    



 STREAM LISTING     PERIOD      1   STEP       40

 LAYER ROW COL. STREAM  RCH.  FLOW INTO     FLOW TO   FLOW OUT OF   OVRLND.     DIRECT     STREAM       STREAM     STREAM     STREAM   STREAMBED  STREAMBED
                SEG.NO.  NO.  STRM. RCH.    AQUIFER    STRM. RCH.    RUNOFF     PRECIP       ET          HEAD       DEPTH      WIDTH   CONDCTNC.   GRADIENT

   1    1    1     1     1    2.5000E+01  2.4011E+00   2.2599E+01  0.000E+00  0.000E+00  0.000E+00  1.09421E+03  1.162E+00  1.282E+01  5.769E-01  1.387E+00
   1    2    2     1     2    2.2599E+01  3.5108E+00   1.9088E+01  0.000E+00  0.000E+00  0.000E+00  1.08917E+03  1.114E+00  1.219E+01  8.533E-01  1.371E+00
   1    3    3     1     3    1.9088E+01  2.7530E+00   1.6335E+01  0.000E+00  0.000E+00  0.000E+00  1.08348E+03  1.062E+00  1.130E+01  6.778E-01  1.354E+00
   1    3    4     1     4    1.6335E+01  2.3306E+00   1.4004E+01  0.000E+00  0.000E+00  0.000E+00  1.07842E+03  1.015E+00  1.046E+01  5.804E-01  1.338E+00
   1    4    5     2     1    4.0044E+00  2.5883E+00   1.4161E+00  0.000E+00  0.000E+00  0.000E+00  1.07225E+03  3.184E-01  1.200E+01  7.800E-01  1.106E+00
   1    5    6     2     2    1.4161E+00  1.4161E+00   0.0000E+00  0.000E+00  0.000E+00  0.000E+00  1.06656E+03  4.853E-02  1.200E+01  6.000E-01  1.016E+00
   1    6    6     2     3    0.0000E+00  0.0000E+00   0.0000E+00  0.000E+00  0.000E+00  0.000E+00  1.06179E+03  0.000E+00  1.200E+01  6.000E-01  1.000E+00
   1    7    6     2     4    0.0000E+00  0.0000E+00   0.0000E+00  0.000E+00  0.000E+00  0.000E+00  1.05708E+03  0.000E+00  1.200E+01  6.000E-01  1.000E+00
   1    8    6     2     5    0.0000E+00  0.0000E+00   0.0000E+00  0.000E+00  0.000E+00  0.000E+00  1.05236E+03  0.000E+00  1.200E+01  6.000E-01  1.000E+00
   1    3    5     3     1    1.0000E+01  2.8252E+00   7.1748E+00  0.000E+00  0.000E+00  0.000E+00  1.07555E+03  1.909E+00  9.636E+00  7.227E-01  1.955E+00
   1    3    6     3     2    7.1748E+00  2.4905E+00   4.6843E+00  0.000E+00  0.000E+00  0.000E+00  1.07264E+03  1.727E+00  8.909E+00  6.682E-01  1.864E+00
   1    3    7     3     3    4.6843E+00  1.9718E+00   2.7125E+00  0.000E+00  0.000E+00  0.000E+00  1.06987E+03  1.555E+00  8.218E+00  5.547E-01  1.777E+00
   1    4    8     3     4    2.7125E+00  2.2567E+00   4.5579E-01  0.000E+00  0.000E+00  0.000E+00  1.06682E+03  1.364E+00  7.455E+00  6.709E-01  1.682E+00
   1    5    8     3     5    4.5579E-01  4.5579E-01   0.0000E+00  0.000E+00  0.000E+00  0.000E+00  1.06362E+03  0.000E+00  6.655E+00  4.991E-01  1.582E+00
   1    6    8     3     6    0.0000E+00  0.0000E+00   0.0000E+00  0.000E+00  0.000E+00  0.000E+00  1.06055E+03  0.000E+00  6.145E+00  1.844E-01  1.000E+00
   1    5   10     4     1    1.0000E+01  9.0525E-01   9.0947E+00  0.000E+00  0.000E+00  0.000E+00  1.07835E+03  6.210E-01  1.000E+01  2.500E-01  1.207E+00
   1    5    9     4     2    9.0947E+00  1.7835E+00   7.3113E+00  0.000E+00  0.000E+00  0.000E+00  1.07148E+03  5.670E-01  1.000E+01  5.000E-01  1.189E+00
   1    6    8     4     3    7.3113E+00  1.2257E+00   6.0855E+00  0.000E+00  0.000E+00  0.000E+00  1.06368E+03  5.021E-01  1.000E+01  3.500E-01  1.167E+00
   1    6    8     5     1    6.0855E+00  1.4717E+00   4.6139E+00  0.000E+00  0.000E+00  0.000E+00  1.05854E+03  5.396E-01  1.039E+01  4.158E-01  1.180E+00
   1    7    7     5     2    4.6139E+00  1.4899E+00   3.1240E+00  0.000E+00  0.000E+00  0.000E+00  1.05398E+03  4.817E-01  8.558E+00  4.279E-01  1.161E+00
   1    8    7     5     3    3.1240E+00  8.2856E-01   2.2955E+00  0.000E+00  0.000E+00  0.000E+00  1.04968E+03  4.253E-01  6.911E+00  2.419E-01  1.142E+00
   1    8    6     5     4    2.2955E+00  4.9460E-01   1.8009E+00  0.000E+00  0.000E+00  0.000E+00  1.04664E+03  3.856E-01  5.844E+00  1.461E-01  1.129E+00
   1    9    6     6     1    1.8009E+00  1.8009E+00   0.0000E+00  0.000E+00  0.000E+00  0.000E+00  1.04278E+03  5.668E-02  1.200E+01  6.000E-01  1.019E+00
   1   10    7     6     2    0.0000E+00  0.0000E+00   0.0000E+00  0.000E+00  0.000E+00  0.000E+00  1.03818E+03  0.000E+00  1.200E+01  6.000E-01  1.000E+00
   1   11    7     6     3    0.0000E+00  0.0000E+00   0.0000E+00  0.000E+00  0.000E+00  0.000E+00  1.03364E+03  0.000E+00  1.200E+01  6.000E-01  1.000E+00
   1   12    7     6     4    0.0000E+00  0.0000E+00   0.0000E+00  0.000E+00  0.000E+00  0.000E+00  1.02909E+03  0.000E+00  1.200E+01  6.000E-01  1.000E+00
   1   13    7     6     5    0.0000E+00 -3.3397E-01   3.3397E-01  0.000E+00  0.000E+00  0.000E+00  1.02597E+03  6.048E-02  1.200E+01  2.400E-01 -4.638E-01
   1   14    9     7     1    1.5000E+02  3.3371E+00   1.4666E+02  0.000E+00  0.000E+00  0.000E+00  1.03986E+03  2.282E+00  5.527E+01  5.590E+00  1.990E-01
   1   13    8     7     2    1.4666E+02  6.5983E+00   1.4006E+02  0.000E+00  0.000E+00  0.000E+00  1.03476E+03  2.256E+00  5.515E+01  6.135E+00  3.585E-01
   1   13    7     7     3    1.4006E+02  1.2556E+01   1.2751E+02  0.000E+00  0.000E+00  0.000E+00  1.02962E+03  2.203E+00  5.492E+01  5.551E+00  7.539E-01
   1   13    6     8     1    1.2784E+02  1.2564E+01   1.1528E+02  0.000E+00  0.000E+00  0.000E+00  1.02448E+03  2.603E+00  3.775E+01  3.847E+00  1.089E+00
   1   13    5     8     2    1.1528E+02  1.1511E+01   1.0377E+02  0.000E+00  0.000E+00  0.000E+00  1.01813E+03  2.503E+00  3.630E+01  3.699E+00  1.037E+00
   1   13    4     8     3    1.0377E+02  8.1451E+00   9.5622E+01  0.000E+00  0.000E+00  0.000E+00  1.01179E+03  2.417E+00  3.504E+01  3.571E+00  7.603E-01
   1   13    3     8     4    9.5622E+01  3.9067E+00   9.1715E+01  0.000E+00  0.000E+00  0.000E+00  1.00549E+03  2.361E+00  3.423E+01  3.488E+00  3.733E-01
   1   13    2     8     5    9.1715E+01  6.8979E-01   9.1026E+01  0.000E+00  0.000E+00  0.000E+00  9.99214E+02  2.339E+00  3.392E+01  3.456E+00  6.653E-02
   1   13    1     8     6    9.1026E+01  7.0840E-01   9.0317E+01  0.000E+00  0.000E+00  0.000E+00  9.94207E+02  2.332E+00  3.382E+01  2.068E+00  1.142E-01



1
              HEAD IN LAYER   1 AT END OF TIME STEP  40 IN STRESS PERIOD    1
  ---------------------------------------------------------------------------

           1       2       3       4       5       6       7       8       9      10
 ...................................................................................
   1  1074.24 1058.42 6999.00 6999.00 6999.00 6999.00 6999.00 6999.00 6999.00 6999.00
   2  1060.56 1044.12 1026.94 6999.00 6999.00 1016.90 1019.81 1021.29 6999.00 6999.00
   3  6999.00 1023.47 1013.43 1004.37 1004.62 1008.37 1014.28 1014.72 6999.00 6999.00
   4  1005.20 1004.46  999.02  991.12  989.11  989.12  995.78 1007.68 1005.79 6999.00
   5   996.78  989.83  983.16  977.71  978.34  982.25  985.73  991.49  999.57 1006.83
   6   987.29  978.52  969.70  961.90  965.04  974.35  981.09  987.25  994.76 1005.15
   7   981.25  970.80  961.38  953.30  958.02  969.37  977.55  982.62  991.13 6999.00
   8  6999.00  966.43  958.38  950.58  956.38  968.14  975.21  981.64  990.77 6999.00
   9  6999.00  968.54  961.92  954.97  960.68  971.77  977.61  984.46  993.92 6999.00
  10  6999.00  976.41  971.85  966.12  970.31  979.26  984.57  991.59 1000.65 1007.30
  11  6999.00  987.60  987.28  984.26  986.63  991.46  995.65 1002.32 1009.18 6999.00
  12   995.33  996.53  998.97  998.29 1001.18 1005.56 1009.94 1018.31 1023.57 6999.00
  13   993.86  999.01 1004.37 1009.51 1015.02 1021.21 1027.36 1033.68 1034.96 6999.00
  14  6999.00 1002.48 1006.57 1010.70 1015.73 1021.38 1027.86 1034.59 1039.27 6999.00
  15  6999.00 6999.00 1009.51 1012.41 1016.35 1019.79 6999.00 6999.00 6999.00 6999.00
1
  VOLUMETRIC BUDGET FOR ENTIRE MODEL AT END OF TIME STEP   40, STRESS PERIOD   1
  ------------------------------------------------------------------------------

     CUMULATIVE VOLUMES      L**3       RATES FOR THIS TIME STEP      L**3/T
     ------------------                 ------------------------

           IN:                                      IN:
           ---                                      ---
             STORAGE = 21924274176.0000               STORAGE =          18.4540
       CONSTANT HEAD =           0.0000         CONSTANT HEAD =           0.0000
               WELLS =           0.0000                 WELLS =           0.0000
                  ET =           0.0000                    ET =           0.0000
     HEAD DEP BOUNDS =   130124816.0000       HEAD DEP BOUNDS =           0.2179
            RECHARGE =  1076269568.0000              RECHARGE =           1.7937
      STREAM LEAKAGE = 47451545600.0000        STREAM LEAKAGE =          95.0168

            TOTAL IN = 70582214656.0000              TOTAL IN =         115.4825

          OUT:                                     OUT:
          ----                                     ----
             STORAGE =     1744137.2500               STORAGE =           0.0000
       CONSTANT HEAD =           0.0000         CONSTANT HEAD =           0.0000
               WELLS = 60001083392.0000                 WELLS =         100.0000
                  ET =  9865554944.0000                    ET =          14.9296
     HEAD DEP BOUNDS =   138497104.0000       HEAD DEP BOUNDS =           0.2229
            RECHARGE =           0.0000              RECHARGE =           0.0000
      STREAM LEAKAGE =   577158208.0000        STREAM LEAKAGE =           0.3340

           TOTAL OUT = 70584041472.0000             TOTAL OUT =         115.4864

            IN - OUT =    -1826816.0000              IN - OUT =      -3.8986E-03

 PERCENT DISCREPANCY =          -0.00     PERCENT DISCREPANCY =          -0.00






         TIME SUMMARY AT END OF TIME STEP   40 IN STRESS PERIOD    1
                    SECONDS     MINUTES      HOURS       DAYS        YEARS
                    -----------------------------------------------------------
   TIME STEP LENGTH 5.57789E+07 9.29648E+05  15494.      645.59      1.7675    
 STRESS PERIOD TIME 6.00011E+08 1.00002E+07 1.66670E+05  6944.6      19.013    
         TOTAL TIME 6.00011E+08 1.00002E+07 1.66670E+05  6944.6      19.013    
1
 
 SOLVING FOR HEAD 
    12 ITERATIONS FOR TIME STEP  41 IN STRESS PERIOD    1

 MAXIMUM HEAD CHANGE FOR EACH ITERATION:

    HEAD CHANGE   HEAD CHANGE   HEAD CHANGE   HEAD CHANGE   HEAD CHANGE
  LAYER,ROW,COL LAYER,ROW,COL LAYER,ROW,COL LAYER,ROW,COL LAYER,ROW,COL
 ----------------------------------------------------------------------
     -2.621        -1.112        -1.169       -0.6314       -0.2984    
  (  1,  4,  1) (  1,  4,  2) (  1,  3,  4) (  1,  6,  5) (  1,  2,  3)
    -0.6442E-01   -0.3009E-01   -0.2598E-01   -0.1633E-01   -0.5949E-02
  (  1,  6,  9) (  1,  3,  4) (  1,  7,  5) (  1,  6,  5) (  1,  7,  4)
    -0.1837E-02   -0.6827E-03
  (  1,  2,  3) (  1,  4,  3)


 NO OUTPUT CONTROL FOR STRESS PERIOD    1   TIME STEP   41
 
 SOLVING FOR HEAD 
    14 ITERATIONS FOR TIME STEP  42 IN STRESS PERIOD    1

 MAXIMUM HEAD CHANGE FOR EACH ITERATION:

    HEAD CHANGE   HEAD CHANGE   HEAD CHANGE   HEAD CHANGE   HEAD CHANGE
  LAYER,ROW,COL LAYER,ROW,COL LAYER,ROW,COL LAYER,ROW,COL LAYER,ROW,COL
 ----------------------------------------------------------------------
     -2.551        -1.089        -1.173       -0.6469       -0.3203    
  (  1,  4,  1) (  1,  4,  2) (  1,  3,  4) (  1,  6,  5) (  1,  2,  3)
    -0.7360E-01   -0.3230E-01   -0.2885E-01   -0.1893E-01   -0.7125E-02
  (  1,  6,  9) (  1,  3,  4) (  1,  6,  5) (  1,  6,  5) (  1,  7,  4)
    -0.2204E-02   -0.8237E-03   -0.9773E-03   -0.5297E-03
  (  1,  2,  3) (  1,  7,  5) (  1,  3,  4) (  1,  6,  5)


 NO OUTPUT CONTROL FOR STRESS PERIOD    1   TIME STEP   42
 
 SOLVING FOR HEAD 
    14 ITERATIONS FOR TIME STEP  43 IN STRESS PERIOD    1

 MAXIMUM HEAD CHANGE FOR EACH ITERATION:

    HEAD CHANGE   HEAD CHANGE   HEAD CHANGE   HEAD CHANGE   HEAD CHANGE
  LAYER,ROW,COL LAYER,ROW,COL LAYER,ROW,COL LAYER,ROW,COL LAYER,ROW,COL
 ----------------------------------------------------------------------
     -2.461        -1.054        -1.162       -0.6549       -0.3395    
  (  1,  4,  1) (  1,  4,  2) (  1,  3,  4) (  1,  6,  5) (  1,  2,  3)
    -0.8327E-01   -0.3423E-01   -0.3168E-01   -0.2166E-01   -0.8418E-02
  (  1,  6,  9) (  1,  3,  4) (  1,  6,  5) (  1,  6,  5) (  1,  7,  4)
    -0.2614E-02   -0.1010E-02   -0.1210E-02   -0.6847E-03
  (  1,  2,  3) (  1,  6,  9) (  1,  3,  4) (  1,  6,  5)


 NO OUTPUT CONTROL FOR STRESS PERIOD    1   TIME STEP   43
 
 SOLVING FOR HEAD 
    15 ITERATIONS FOR TIME STEP  44 IN STRESS PERIOD    1

 MAXIMUM HEAD CHANGE FOR EACH ITERATION:

    HEAD CHANGE   HEAD CHANGE   HEAD CHANGE   HEAD CHANGE   HEAD CHANGE
  LAYER,ROW,COL LAYER,ROW,COL LAYER,ROW,COL LAYER,ROW,COL LAYER,ROW,COL
 ----------------------------------------------------------------------
     -2.356        -1.006        -1.136       -0.6544       -0.3549    
  (  1,  7,  1) (  1,  4,  2) (  1,  3,  4) (  1,  6,  5) (  1,  2,  3)
    -0.9318E-01   -0.3576E-01   -0.3434E-01   -0.2442E-01   -0.9814E-02
  (  1,  6,  9) (  1,  3,  4) (  1,  6,  5) (  1,  6,  5) (  1,  7,  4)
    -0.3059E-02   -0.1247E-02   -0.1477E-02    0.1246E-02   -0.4518E-03
  (  1,  2,  3) (  1,  6,  9) (  1,  3,  4) (  1, 13,  3) (  1,  2,  3)


 NO OUTPUT CONTROL FOR STRESS PERIOD    1   TIME STEP   44
 
 SOLVING FOR HEAD 
    15 ITERATIONS FOR TIME STEP  45 IN STRESS PERIOD    1

 MAXIMUM HEAD CHANGE FOR EACH ITERATION:

    HEAD CHANGE   HEAD CHANGE   HEAD CHANGE   HEAD CHANGE   HEAD CHANGE
  LAYER,ROW,COL LAYER,ROW,COL LAYER,ROW,COL LAYER,ROW,COL LAYER,ROW,COL
 ----------------------------------------------------------------------
     -2.243       -0.9480        -1.094       -0.6449       -0.3656    
  (  1,  7,  1) (  1,  4,  2) (  1,  3,  4) (  1,  6,  5) (  1,  2,  3)
    -0.1030       -0.3681E-01   -0.3667E-01   -0.2715E-01   -0.1125E-01
  (  1,  6,  9) (  1,  3,  4) (  1,  6,  5) (  1,  6,  5) (  1,  7,  4)
    -0.3534E-02   -0.1520E-02   -0.1773E-02   -0.1087E-02   -0.5908E-03
  (  1,  2,  3) (  1,  6,  9) (  1,  3,  4) (  1,  6,  5) (  1,  2,  3)


 OUTPUT CONTROL FOR STRESS PERIOD    1   TIME STEP   45
    PRINT BUDGET
    PRINT HEAD FOR ALL LAYERS
    SAVE BUDGET

            WELLS   PERIOD    1   STEP  45
 WELL      1   LAYER   1   ROW     6   COL     4   RATE   -10.00000    
 WELL      2   LAYER   1   ROW     6   COL     5   RATE   -10.00000    
 WELL      3   LAYER   1   ROW     7   COL     4   RATE   -10.00000    
 WELL      4   LAYER   1   ROW     7   COL     5   RATE   -10.00000    
 WELL      5   LAYER   1   ROW     8   COL     4   RATE   -10.00000    
 WELL      6   LAYER   1   ROW     8   COL     5   RATE   -10.00000    
 WELL      7   LAYER   1   ROW     9   COL     4   RATE   -10.00000    
 WELL      8   LAYER   1   ROW     9   COL     5   RATE   -10.00000    
 WELL      9   LAYER   1   ROW    10   COL     4   RATE   -10.00000    
 WELL     10   LAYER   1   ROW    10   COL     5   RATE   -10.00000    
 UBUDSV SAVING "              ET" ON UNIT 59 AT TIME STEP 45, STRESS PERIOD    1

  HEAD DEP BOUNDS   PERIOD    1   STEP  45
 BOUNDARY      1   LAYER   1   ROW    13   COL     1   RATE   -0.218506    
 BOUNDARY      2   LAYER   1   ROW    14   COL     9   RATE    0.218478    



 STREAM LISTING     PERIOD      1   STEP       45

 LAYER ROW COL. STREAM  RCH.  FLOW INTO     FLOW TO   FLOW OUT OF   OVRLND.     DIRECT     STREAM       STREAM     STREAM     STREAM   STREAMBED  STREAMBED
                SEG.NO.  NO.  STRM. RCH.    AQUIFER    STRM. RCH.    RUNOFF     PRECIP       ET          HEAD       DEPTH      WIDTH   CONDCTNC.   GRADIENT

   1    1    1     1     1    2.5000E+01  2.4011E+00   2.2599E+01  0.000E+00  0.000E+00  0.000E+00  1.09421E+03  1.162E+00  1.282E+01  5.769E-01  1.387E+00
   1    2    2     1     2    2.2599E+01  3.5108E+00   1.9088E+01  0.000E+00  0.000E+00  0.000E+00  1.08917E+03  1.114E+00  1.219E+01  8.533E-01  1.371E+00
   1    3    3     1     3    1.9088E+01  2.7530E+00   1.6335E+01  0.000E+00  0.000E+00  0.000E+00  1.08348E+03  1.062E+00  1.130E+01  6.778E-01  1.354E+00
   1    3    4     1     4    1.6335E+01  2.3306E+00   1.4004E+01  0.000E+00  0.000E+00  0.000E+00  1.07842E+03  1.015E+00  1.046E+01  5.804E-01  1.338E+00
   1    4    5     2     1    4.0044E+00  2.5883E+00   1.4161E+00  0.000E+00  0.000E+00  0.000E+00  1.07225E+03  3.184E-01  1.200E+01  7.800E-01  1.106E+00
   1    5    6     2     2    1.4161E+00  1.4161E+00   0.0000E+00  0.000E+00  0.000E+00  0.000E+00  1.06656E+03  4.853E-02  1.200E+01  6.000E-01  1.016E+00
   1    6    6     2     3    0.0000E+00  0.0000E+00   0.0000E+00  0.000E+00  0.000E+00  0.000E+00  1.06179E+03  0.000E+00  1.200E+01  6.000E-01  1.000E+00
   1    7    6     2     4    0.0000E+00  0.0000E+00   0.0000E+00  0.000E+00  0.000E+00  0.000E+00  1.05708E+03  0.000E+00  1.200E+01  6.000E-01  1.000E+00
   1    8    6     2     5    0.0000E+00  0.0000E+00   0.0000E+00  0.000E+00  0.000E+00  0.000E+00  1.05236E+03  0.000E+00  1.200E+01  6.000E-01  1.000E+00
   1    3    5     3     1    1.0000E+01  2.8252E+00   7.1748E+00  0.000E+00  0.000E+00  0.000E+00  1.07555E+03  1.909E+00  9.636E+00  7.227E-01  1.955E+00
   1    3    6     3     2    7.1748E+00  2.4905E+00   4.6843E+00  0.000E+00  0.000E+00  0.000E+00  1.07264E+03  1.727E+00  8.909E+00  6.682E-01  1.864E+00
   1    3    7     3     3    4.6843E+00  1.9718E+00   2.7125E+00  0.000E+00  0.000E+00  0.000E+00  1.06987E+03  1.555E+00  8.218E+00  5.547E-01  1.777E+00
   1    4    8     3     4    2.7125E+00  2.2567E+00   4.5579E-01  0.000E+00  0.000E+00  0.000E+00  1.06682E+03  1.364E+00  7.455E+00  6.709E-01  1.682E+00
   1    5    8     3     5    4.5579E-01  4.5579E-01   0.0000E+00  0.000E+00  0.000E+00  0.000E+00  1.06362E+03  0.000E+00  6.655E+00  4.991E-01  1.582E+00
   1    6    8     3     6    0.0000E+00  0.0000E+00   0.0000E+00  0.000E+00  0.000E+00  0.000E+00  1.06055E+03  0.000E+00  6.145E+00  1.844E-01  1.000E+00
   1    5   10     4     1    1.0000E+01  9.0525E-01   9.0947E+00  0.000E+00  0.000E+00  0.000E+00  1.07835E+03  6.210E-01  1.000E+01  2.500E-01  1.207E+00
   1    5    9     4     2    9.0947E+00  1.7835E+00   7.3113E+00  0.000E+00  0.000E+00  0.000E+00  1.07148E+03  5.670E-01  1.000E+01  5.000E-01  1.189E+00
   1    6    8     4     3    7.3113E+00  1.2257E+00   6.0855E+00  0.000E+00  0.000E+00  0.000E+00  1.06368E+03  5.021E-01  1.000E+01  3.500E-01  1.167E+00
   1    6    8     5     1    6.0855E+00  1.4717E+00   4.6139E+00  0.000E+00  0.000E+00  0.000E+00  1.05854E+03  5.396E-01  1.039E+01  4.158E-01  1.180E+00
   1    7    7     5     2    4.6139E+00  1.4899E+00   3.1240E+00  0.000E+00  0.000E+00  0.000E+00  1.05398E+03  4.817E-01  8.558E+00  4.279E-01  1.161E+00
   1    8    7     5     3    3.1240E+00  8.2856E-01   2.2955E+00  0.000E+00  0.000E+00  0.000E+00  1.04968E+03  4.253E-01  6.911E+00  2.419E-01  1.142E+00
   1    8    6     5     4    2.2955E+00  4.9460E-01   1.8009E+00  0.000E+00  0.000E+00  0.000E+00  1.04664E+03  3.856E-01  5.844E+00  1.461E-01  1.129E+00
   1    9    6     6     1    1.8009E+00  1.8009E+00   0.0000E+00  0.000E+00  0.000E+00  0.000E+00  1.04278E+03  5.668E-02  1.200E+01  6.000E-01  1.019E+00
   1   10    7     6     2    0.0000E+00  0.0000E+00   0.0000E+00  0.000E+00  0.000E+00  0.000E+00  1.03818E+03  0.000E+00  1.200E+01  6.000E-01  1.000E+00
   1   11    7     6     3    0.0000E+00  0.0000E+00   0.0000E+00  0.000E+00  0.000E+00  0.000E+00  1.03364E+03  0.000E+00  1.200E+01  6.000E-01  1.000E+00
   1   12    7     6     4    0.0000E+00  0.0000E+00   0.0000E+00  0.000E+00  0.000E+00  0.000E+00  1.02909E+03  0.000E+00  1.200E+01  6.000E-01  1.000E+00
   1   13    7     6     5    0.0000E+00 -2.6941E-01   2.6941E-01  0.000E+00  0.000E+00  0.000E+00  1.02596E+03  5.316E-02  1.200E+01  2.400E-01 -3.742E-01
   1   14    9     7     1    1.5000E+02  3.4229E+00   1.4658E+02  0.000E+00  0.000E+00  0.000E+00  1.03986E+03  2.282E+00  5.527E+01  5.590E+00  2.041E-01
   1   13    8     7     2    1.4658E+02  7.0720E+00   1.3951E+02  0.000E+00  0.000E+00  0.000E+00  1.03475E+03  2.254E+00  5.514E+01  6.134E+00  3.843E-01
   1   13    7     7     3    1.3951E+02  1.4040E+01   1.2546E+02  0.000E+00  0.000E+00  0.000E+00  1.02962E+03  2.196E+00  5.488E+01  5.548E+00  8.436E-01
   1   13    6     8     1    1.2573E+02  1.4207E+01   1.1153E+02  0.000E+00  0.000E+00  0.000E+00  1.02445E+03  2.580E+00  3.740E+01  3.812E+00  1.242E+00
   1   13    5     8     2    1.1153E+02  1.3283E+01   9.8245E+01  0.000E+00  0.000E+00  0.000E+00  1.01809E+03  2.463E+00  3.572E+01  3.640E+00  1.216E+00
   1   13    4     8     3    9.8245E+01  9.6031E+00   8.8642E+01  0.000E+00  0.000E+00  0.000E+00  1.01173E+03  2.359E+00  3.420E+01  3.485E+00  9.184E-01
   1   13    3     8     4    8.8642E+01  4.8245E+00   8.3817E+01  0.000E+00  0.000E+00  0.000E+00  1.00541E+03  2.289E+00  3.319E+01  3.382E+00  4.755E-01
   1   13    2     8     5    8.3817E+01  9.4148E-01   8.2876E+01  0.000E+00  0.000E+00  0.000E+00  9.99135E+02  2.260E+00  3.277E+01  3.339E+00  9.399E-02
   1   13    1     8     6    8.2876E+01  7.5030E-01   8.2125E+01  0.000E+00  0.000E+00  0.000E+00  9.94126E+02  2.251E+00  3.264E+01  1.996E+00  1.253E-01



1
              HEAD IN LAYER   1 AT END OF TIME STEP  45 IN STRESS PERIOD    1
  ---------------------------------------------------------------------------

           1       2       3       4       5       6       7       8       9      10
 ...................................................................................
   1  1062.68 1043.43 6999.00 6999.00 6999.00 6999.00 6999.00 6999.00 6999.00 6999.00
   2  1045.67 1026.80 1008.40 6999.00 6999.00  998.41 1001.24 1002.43 6999.00 6999.00
   3  6999.00 1004.80  994.49  985.78  986.55  990.49  996.34  996.28 6999.00 6999.00
   4   985.35  984.95  980.10  972.74  971.05  971.17  977.93  990.56  988.08 6999.00
   5   976.84  970.07  964.43  959.63  960.56  964.71  968.32  974.01  981.98  990.43
   6   967.27  959.09  951.48  944.27  947.78  957.48  964.29  970.31  977.04  988.13
   7   961.60  952.44  944.34  936.85  942.00  953.74  961.86  966.25  974.68 6999.00
   8  6999.00  950.75  943.48  936.10  942.34  954.47  961.51  966.94  976.16 6999.00
   9  6999.00  956.23  949.97  943.19  949.18  960.52  966.44  972.88  982.50 6999.00
  10  6999.00  967.72  963.18  957.32  961.50  970.58  976.02  983.11  992.34  998.08
  11  6999.00  982.55  982.21  978.47  980.66  985.48  989.78  996.74 1003.85 6999.00
  12   994.42  994.69  996.76  995.30  997.97 1002.34 1006.88 1015.89 1021.40 6999.00
  13   993.75  998.85 1003.99 1008.98 1014.44 1020.73 1027.08 1033.60 1034.69 6999.00
  14  6999.00 1002.17 1006.12 1010.17 1015.18 1020.91 1027.58 1034.49 1039.25 6999.00
  15  6999.00 6999.00 1008.96 1011.82 1015.75 1019.23 6999.00 6999.00 6999.00 6999.00
1
  VOLUMETRIC BUDGET FOR ENTIRE MODEL AT END OF TIME STEP   45, STRESS PERIOD   1
  ------------------------------------------------------------------------------

     CUMULATIVE VOLUMES      L**3       RATES FOR THIS TIME STEP      L**3/T
     ------------------                 ------------------------

           IN:                                      IN:
           ---                                      ---
             STORAGE = 26721271808.0000               STORAGE =           9.8451
       CONSTANT HEAD =           0.0000         CONSTANT HEAD =           0.0000
               WELLS =           0.0000                 WELLS =           0.0000
                  ET =           0.0000                    ET =           0.0000
     HEAD DEP BOUNDS =   211888640.0000       HEAD DEP BOUNDS =           0.2185
            RECHARGE =  1748189184.0000              RECHARGE =           1.7937
      STREAM LEAKAGE = 85041668096.0000        STREAM LEAKAGE =         103.1440

            TOTAL IN =113723015168.0000              TOTAL IN =         115.0013

          OUT:                                     OUT:
          ----                                     ----
             STORAGE =     1744137.2500               STORAGE =           0.0000
       CONSTANT HEAD =           0.0000         CONSTANT HEAD =           0.0000
               WELLS = 97460019200.0000                 WELLS =         100.0000
                  ET = 15356478464.0000                    ET =          14.5146
     HEAD DEP BOUNDS =   220915136.0000       HEAD DEP BOUNDS =           0.2185
            RECHARGE =           0.0000              RECHARGE =           0.0000
      STREAM LEAKAGE =   686397824.0000        STREAM LEAKAGE =           0.2694

           TOTAL OUT =113725554688.0000             TOTAL OUT =         115.0025

            IN - OUT =    -2539520.0000              IN - OUT =      -1.1826E-03

 PERCENT DISCREPANCY =          -0.00     PERCENT DISCREPANCY =          -0.00






         TIME SUMMARY AT END OF TIME STEP   45 IN STRESS PERIOD    1
                    SECONDS     MINUTES      HOURS       DAYS        YEARS
                    -----------------------------------------------------------
   TIME STEP LENGTH 8.98325E+07 1.49721E+06  24953.      1039.7      2.8466    
 STRESS PERIOD TIME 9.74600E+08 1.62433E+07 2.70722E+05  11280.      30.883    
         TOTAL TIME 9.74600E+08 1.62433E+07 2.70722E+05  11280.      30.883    
1
 
 SOLVING FOR HEAD 
    15 ITERATIONS FOR TIME STEP  46 IN STRESS PERIOD    1

 MAXIMUM HEAD CHANGE FOR EACH ITERATION:

    HEAD CHANGE   HEAD CHANGE   HEAD CHANGE   HEAD CHANGE   HEAD CHANGE
  LAYER,ROW,COL LAYER,ROW,COL LAYER,ROW,COL LAYER,ROW,COL LAYER,ROW,COL
 ----------------------------------------------------------------------
     -2.116       -0.8799        -1.038       -0.6264       -0.3710    
  (  1,  7,  1) (  1,  4,  2) (  1,  3,  4) (  1,  6,  4) (  1,  2,  3)
    -0.1123       -0.3728E-01   -0.3855E-01   -0.2967E-01   -0.1291E-01
  (  1,  6,  9) (  1,  3,  4) (  1,  6,  5) (  1,  6,  5) (  1,  6,  9)
    -0.4027E-02   -0.1819E-02   -0.2093E-02   -0.1336E-02   -0.7586E-03
  (  1,  2,  3) (  1,  6,  9) (  1,  3,  4) (  1,  6,  5) (  1,  2,  3)


 NO OUTPUT CONTROL FOR STRESS PERIOD    1   TIME STEP   46
 
 SOLVING FOR HEAD 
    16 ITERATIONS FOR TIME STEP  47 IN STRESS PERIOD    1

 MAXIMUM HEAD CHANGE FOR EACH ITERATION:

    HEAD CHANGE   HEAD CHANGE   HEAD CHANGE   HEAD CHANGE   HEAD CHANGE
  LAYER,ROW,COL LAYER,ROW,COL LAYER,ROW,COL LAYER,ROW,COL LAYER,ROW,COL
 ----------------------------------------------------------------------
     -1.975       -0.8041       -0.9682       -0.5998       -0.3704    
  (  1,  7,  1) (  1,  4,  2) (  1,  3,  4) (  1,  6,  4) (  1,  2,  3)
    -0.1205       -0.3785E-01   -0.3985E-01   -0.3188E-01   -0.1456E-01
  (  1,  6,  9) (  1,  6,  9) (  1,  6,  5) (  1,  5,  5) (  1,  6,  9)
     0.4647E-02   -0.2140E-02   -0.2424E-02   -0.1614E-02   -0.9499E-03
  (  1,  7,  9) (  1,  6,  9) (  1,  3,  4) (  1,  6,  5) (  1,  2,  3)
    -0.3714E-03
  (  1,  6,  9)


 NO OUTPUT CONTROL FOR STRESS PERIOD    1   TIME STEP   47
 
 SOLVING FOR HEAD 
    16 ITERATIONS FOR TIME STEP  48 IN STRESS PERIOD    1

 MAXIMUM HEAD CHANGE FOR EACH ITERATION:

    HEAD CHANGE   HEAD CHANGE   HEAD CHANGE   HEAD CHANGE   HEAD CHANGE
  LAYER,ROW,COL LAYER,ROW,COL LAYER,ROW,COL LAYER,ROW,COL LAYER,ROW,COL
 ----------------------------------------------------------------------
     -1.822       -0.7226       -0.8877       -0.5643       -0.3633    
  (  1,  7,  1) (  1,  4,  2) (  1,  3,  4) (  1,  6,  4) (  1,  2,  3)
    -0.1270       -0.3916E-01   -0.4043E-01   -0.3370E-01   -0.1610E-01
  (  1,  6,  9) (  1,  6,  9) (  1,  6,  5) (  1,  5,  5) (  1,  6,  9)
     0.5306E-02   -0.2461E-02   -0.2750E-02   -0.1897E-02   -0.1164E-02
  (  1,  7,  9) (  1,  6,  9) (  1,  3,  4) (  1,  6,  5) (  1,  2,  3)
    -0.4819E-03
  (  1,  6,  9)


 NO OUTPUT CONTROL FOR STRESS PERIOD    1   TIME STEP   48
 
 SOLVING FOR HEAD 
    16 ITERATIONS FOR TIME STEP  49 IN STRESS PERIOD    1

 MAXIMUM HEAD CHANGE FOR EACH ITERATION:

    HEAD CHANGE   HEAD CHANGE   HEAD CHANGE   HEAD CHANGE   HEAD CHANGE
  LAYER,ROW,COL LAYER,ROW,COL LAYER,ROW,COL LAYER,ROW,COL LAYER,ROW,COL
 ----------------------------------------------------------------------
     -1.660       -0.6380       -0.8024       -0.5210       -0.3498    
  (  1,  7,  1) (  1,  4,  2) (  1,  2,  3) (  1,  6,  4) (  1,  2,  3)
    -0.1310       -0.3972E-01   -0.4020E-01   -0.3487E-01   -0.1741E-01
  (  1,  6,  9) (  1,  6,  9) (  1,  6,  5) (  1,  5,  5) (  1,  6,  9)
     0.5929E-02   -0.2763E-02   -0.3053E-02   -0.2187E-02   -0.1396E-02
  (  1,  7,  9) (  1,  6,  9) (  1,  3,  4) (  1,  6,  5) (  1,  2,  3)
    -0.6137E-03
  (  1,  6,  9)


 NO OUTPUT CONTROL FOR STRESS PERIOD    1   TIME STEP   49
 
 SOLVING FOR HEAD 
    16 ITERATIONS FOR TIME STEP  50 IN STRESS PERIOD    1

 MAXIMUM HEAD CHANGE FOR EACH ITERATION:

    HEAD CHANGE   HEAD CHANGE   HEAD CHANGE   HEAD CHANGE   HEAD CHANGE
  LAYER,ROW,COL LAYER,ROW,COL LAYER,ROW,COL LAYER,ROW,COL LAYER,ROW,COL
 ----------------------------------------------------------------------
     -1.490       -0.5525       -0.7115       -0.4714       -0.3301    
  (  1,  7,  1) (  1,  4,  2) (  1,  2,  3) (  1,  6,  4) (  1,  2,  3)
    -0.1318       -0.3942E-01   -0.3913E-01   -0.3527E-01   -0.1835E-01
  (  1,  6,  9) (  1,  6,  9) (  1,  6,  6) (  1,  5,  5) (  1,  6,  9)
     0.6488E-02   -0.3022E-02   -0.3303E-02   -0.2454E-02   -0.1639E-02
  (  1,  7,  9) (  1,  6,  9) (  1,  3,  4) (  1,  6,  5) (  1,  2,  3)
    -0.7573E-03
  (  1,  6,  9)


 OUTPUT CONTROL FOR STRESS PERIOD    1   TIME STEP   50
    PRINT BUDGET
    PRINT HEAD FOR ALL LAYERS
    SAVE HEAD FOR ALL LAYERS
    SAVE BUDGET

            WELLS   PERIOD    1   STEP  50
 WELL      1   LAYER   1   ROW     6   COL     4   RATE   -10.00000    
 WELL      2   LAYER   1   ROW     6   COL     5   RATE   -10.00000    
 WELL      3   LAYER   1   ROW     7   COL     4   RATE   -10.00000    
 WELL      4   LAYER   1   ROW     7   COL     5   RATE   -10.00000    
 WELL      5   LAYER   1   ROW     8   COL     4   RATE   -10.00000    
 WELL      6   LAYER   1   ROW     8   COL     5   RATE   -10.00000    
 WELL      7   LAYER   1   ROW     9   COL     4   RATE   -10.00000    
 WELL      8   LAYER   1   ROW     9   COL     5   RATE   -10.00000    
 WELL      9   LAYER   1   ROW    10   COL     4   RATE   -10.00000    
 WELL     10   LAYER   1   ROW    10   COL     5   RATE   -10.00000    
 UBUDSV SAVING "              ET" ON UNIT 59 AT TIME STEP 50, STRESS PERIOD    1

  HEAD DEP BOUNDS   PERIOD    1   STEP  50
 BOUNDARY      1   LAYER   1   ROW    13   COL     1   RATE   -0.215320    
 BOUNDARY      2   LAYER   1   ROW    14   COL     9   RATE    0.218865    



 STREAM LISTING     PERIOD      1   STEP       50

 LAYER ROW COL. STREAM  RCH.  FLOW INTO     FLOW TO   FLOW OUT OF   OVRLND.     DIRECT     STREAM       STREAM     STREAM     STREAM   STREAMBED  STREAMBED
                SEG.NO.  NO.  STRM. RCH.    AQUIFER    STRM. RCH.    RUNOFF     PRECIP       ET          HEAD       DEPTH      WIDTH   CONDCTNC.   GRADIENT

   1    1    1     1     1    2.5000E+01  2.4011E+00   2.2599E+01  0.000E+00  0.000E+00  0.000E+00  1.09421E+03  1.162E+00  1.282E+01  5.769E-01  1.387E+00
   1    2    2     1     2    2.2599E+01  3.5108E+00   1.9088E+01  0.000E+00  0.000E+00  0.000E+00  1.08917E+03  1.114E+00  1.219E+01  8.533E-01  1.371E+00
   1    3    3     1     3    1.9088E+01  2.7530E+00   1.6335E+01  0.000E+00  0.000E+00  0.000E+00  1.08348E+03  1.062E+00  1.130E+01  6.778E-01  1.354E+00
   1    3    4     1     4    1.6335E+01  2.3306E+00   1.4004E+01  0.000E+00  0.000E+00  0.000E+00  1.07842E+03  1.015E+00  1.046E+01  5.804E-01  1.338E+00
   1    4    5     2     1    4.0044E+00  2.5883E+00   1.4161E+00  0.000E+00  0.000E+00  0.000E+00  1.07225E+03  3.184E-01  1.200E+01  7.800E-01  1.106E+00
   1    5    6     2     2    1.4161E+00  1.4161E+00   0.0000E+00  0.000E+00  0.000E+00  0.000E+00  1.06656E+03  4.853E-02  1.200E+01  6.000E-01  1.016E+00
   1    6    6     2     3    0.0000E+00  0.0000E+00   0.0000E+00  0.000E+00  0.000E+00  0.000E+00  1.06179E+03  0.000E+00  1.200E+01  6.000E-01  1.000E+00
   1    7    6     2     4    0.0000E+00  0.0000E+00   0.0000E+00  0.000E+00  0.000E+00  0.000E+00  1.05708E+03  0.000E+00  1.200E+01  6.000E-01  1.000E+00
   1    8    6     2     5    0.0000E+00  0.0000E+00   0.0000E+00  0.000E+00  0.000E+00  0.000E+00  1.05236E+03  0.000E+00  1.200E+01  6.000E-01  1.000E+00
   1    3    5     3     1    1.0000E+01  2.8252E+00   7.1748E+00  0.000E+00  0.000E+00  0.000E+00  1.07555E+03  1.909E+00  9.636E+00  7.227E-01  1.955E+00
   1    3    6     3     2    7.1748E+00  2.4905E+00   4.6843E+00  0.000E+00  0.000E+00  0.000E+00  1.07264E+03  1.727E+00  8.909E+00  6.682E-01  1.864E+00
   1    3    7     3     3    4.6843E+00  1.9718E+00   2.7125E+00  0.000E+00  0.000E+00  0.000E+00  1.06987E+03  1.555E+00  8.218E+00  5.547E-01  1.777E+00
   1    4    8     3     4    2.7125E+00  2.2567E+00   4.5579E-01  0.000E+00  0.000E+00  0.000E+00  1.06682E+03  1.364E+00  7.455E+00  6.709E-01  1.682E+00
   1    5    8     3     5    4.5579E-01  4.5579E-01   0.0000E+00  0.000E+00  0.000E+00  0.000E+00  1.06362E+03  0.000E+00  6.655E+00  4.991E-01  1.582E+00
   1    6    8     3     6    0.0000E+00  0.0000E+00   0.0000E+00  0.000E+00  0.000E+00  0.000E+00  1.06055E+03  0.000E+00  6.145E+00  1.844E-01  1.000E+00
   1    5   10     4     1    1.0000E+01  9.0525E-01   9.0947E+00  0.000E+00  0.000E+00  0.000E+00  1.07835E+03  6.210E-01  1.000E+01  2.500E-01  1.207E+00
   1    5    9     4     2    9.0947E+00  1.7835E+00   7.3113E+00  0.000E+00  0.000E+00  0.000E+00  1.07148E+03  5.670E-01  1.000E+01  5.000E-01  1.189E+00
   1    6    8     4     3    7.3113E+00  1.2257E+00   6.0855E+00  0.000E+00  0.000E+00  0.000E+00  1.06368E+03  5.021E-01  1.000E+01  3.500E-01  1.167E+00
   1    6    8     5     1    6.0855E+00  1.4717E+00   4.6139E+00  0.000E+00  0.000E+00  0.000E+00  1.05854E+03  5.396E-01  1.039E+01  4.158E-01  1.180E+00
   1    7    7     5     2    4.6139E+00  1.4899E+00   3.1240E+00  0.000E+00  0.000E+00  0.000E+00  1.05398E+03  4.817E-01  8.558E+00  4.279E-01  1.161E+00
   1    8    7     5     3    3.1240E+00  8.2856E-01   2.2955E+00  0.000E+00  0.000E+00  0.000E+00  1.04968E+03  4.253E-01  6.911E+00  2.419E-01  1.142E+00
   1    8    6     5     4    2.2955E+00  4.9460E-01   1.8009E+00  0.000E+00  0.000E+00  0.000E+00  1.04664E+03  3.856E-01  5.844E+00  1.461E-01  1.129E+00
   1    9    6     6     1    1.8009E+00  1.8009E+00   0.0000E+00  0.000E+00  0.000E+00  0.000E+00  1.04278E+03  5.668E-02  1.200E+01  6.000E-01  1.019E+00
   1   10    7     6     2    0.0000E+00  0.0000E+00   0.0000E+00  0.000E+00  0.000E+00  0.000E+00  1.03818E+03  0.000E+00  1.200E+01  6.000E-01  1.000E+00
   1   11    7     6     3    0.0000E+00  0.0000E+00   0.0000E+00  0.000E+00  0.000E+00  0.000E+00  1.03364E+03  0.000E+00  1.200E+01  6.000E-01  1.000E+00
   1   12    7     6     4    0.0000E+00  0.0000E+00   0.0000E+00  0.000E+00  0.000E+00  0.000E+00  1.02909E+03  0.000E+00  1.200E+01  6.000E-01  1.000E+00
   1   13    7     6     5    0.0000E+00 -2.2450E-01   2.2450E-01  0.000E+00  0.000E+00  0.000E+00  1.02596E+03  4.765E-02  1.200E+01  2.400E-01 -3.118E-01
   1   14    9     7     1    1.5000E+02  3.4788E+00   1.4652E+02  0.000E+00  0.000E+00  0.000E+00  1.03986E+03  2.282E+00  5.527E+01  5.590E+00  2.074E-01
   1   13    8     7     2    1.4652E+02  7.3931E+00   1.3913E+02  0.000E+00  0.000E+00  0.000E+00  1.03475E+03  2.253E+00  5.514E+01  6.133E+00  4.018E-01
   1   13    7     7     3    1.3913E+02  1.5075E+01   1.2405E+02  0.000E+00  0.000E+00  0.000E+00  1.02961E+03  2.191E+00  5.486E+01  5.545E+00  9.061E-01
   1   13    6     8     1    1.2428E+02  1.5353E+01   1.0892E+02  0.000E+00  0.000E+00  0.000E+00  1.02444E+03  2.563E+00  3.716E+01  3.787E+00  1.351E+00
   1   13    5     8     2    1.0892E+02  1.4517E+01   9.4408E+01  0.000E+00  0.000E+00  0.000E+00  1.01806E+03  2.435E+00  3.530E+01  3.597E+00  1.345E+00
   1   13    4     8     3    9.4408E+01  1.0613E+01   8.3795E+01  0.000E+00  0.000E+00  0.000E+00  1.01169E+03  2.317E+00  3.360E+01  3.424E+00  1.033E+00
   1   13    3     8     4    8.3795E+01  5.4561E+00   7.8339E+01  0.000E+00  0.000E+00  0.000E+00  1.00536E+03  2.236E+00  3.243E+01  3.304E+00  5.504E-01
   1   13    2     8     5    7.8339E+01  1.1145E+00   7.7224E+01  0.000E+00  0.000E+00  0.000E+00  9.99077E+02  2.202E+00  3.193E+01  3.254E+00  1.142E-01
   1   13    1     8     6    7.7224E+01  7.7834E-01   7.6446E+01  0.000E+00  0.000E+00  0.000E+00  9.94067E+02  2.192E+00  3.178E+01  1.943E+00  1.335E-01



1
              HEAD IN LAYER   1 AT END OF TIME STEP  50 IN STRESS PERIOD    1
  ---------------------------------------------------------------------------

           1       2       3       4       5       6       7       8       9      10
 ...................................................................................
   1  1056.26 1033.44 6999.00 6999.00 6999.00 6999.00 6999.00 6999.00 6999.00 6999.00
   2  1035.59 1014.20  994.65 6999.00 6999.00  984.77  987.53  988.43 6999.00 6999.00
   3  6999.00  990.94  980.36  971.94  973.16  977.30  983.15  982.65 6999.00 6999.00
   4   970.39  970.30  965.98  959.07  957.67  957.89  964.77  978.09  974.99 6999.00
   5   961.83  955.16  950.45  946.21  947.38  951.75  955.47  961.13  969.07  979.27
   6   952.02  944.41  937.90  931.20  935.01  945.02  951.91  957.82  963.84  976.80
   7   946.61  938.62  931.70  924.69  930.18  942.25  950.34  954.19  962.70 6999.00
   8  6999.00  939.14  932.53  925.46  932.06  944.49  951.53  956.15  965.74 6999.00
   9  6999.00  947.35  941.30  934.65  940.84  952.39  958.39  964.60  974.70 6999.00
  10  6999.00  961.58  956.99  951.01  955.18  964.37  969.91  977.20  986.86  991.99
  11  6999.00  979.03  978.63  974.35  976.41  981.24  985.62  992.87 1000.31 6999.00
  12   993.80  993.42  995.21  993.18  995.70 1000.08 1004.73 1014.23 1019.98 6999.00
  13   993.67  998.73 1003.71 1008.59 1014.02 1020.38 1026.89 1033.55 1034.51 6999.00
  14  6999.00 1001.95 1005.80 1009.79 1014.78 1020.58 1027.38 1034.42 1039.24 6999.00
  15  6999.00 6999.00 1008.57 1011.41 1015.34 1018.84 6999.00 6999.00 6999.00 6999.00

 HEAD WILL BE SAVED ON UNIT   58 AT END OF TIME STEP   50, STRESS PERIOD    1
1
  VOLUMETRIC BUDGET FOR ENTIRE MODEL AT END OF TIME STEP   50, STRESS PERIOD   1
  ------------------------------------------------------------------------------

     CUMULATIVE VOLUMES      L**3       RATES FOR THIS TIME STEP      L**3/T
     ------------------                 ------------------------

           IN:                                      IN:
           ---                                      ---
             STORAGE = 30216357888.0000               STORAGE =           3.8645
       CONSTANT HEAD =           0.0000         CONSTANT HEAD =           0.0000
               WELLS =           0.0000                 WELLS =           0.0000
                  ET =           0.0000                    ET =           0.0000
     HEAD DEP BOUNDS =   343850912.0000       HEAD DEP BOUNDS =           0.2189
            RECHARGE =  2830322432.0000              RECHARGE =           1.7937
      STREAM LEAKAGE =149569634304.0000        STREAM LEAKAGE =         108.7784

            TOTAL IN =182960160768.0000              TOTAL IN =         114.6555

          OUT:                                     OUT:
          ----                                     ----
             STORAGE =     1744137.2500               STORAGE =           0.0000
       CONSTANT HEAD =           0.0000         CONSTANT HEAD =           0.0000
               WELLS =157788012544.0000                 WELLS =         100.0000
                  ET = 23991543808.0000                    ET =          14.2169
     HEAD DEP BOUNDS =   351440704.0000       HEAD DEP BOUNDS =           0.2153
            RECHARGE =           0.0000              RECHARGE =           0.0000
      STREAM LEAKAGE =   830575488.0000        STREAM LEAKAGE =           0.2245

           TOTAL OUT =182963306496.0000             TOTAL OUT =         114.6567

            IN - OUT =    -3145728.0000              IN - OUT =      -1.2817E-03

 PERCENT DISCREPANCY =          -0.00     PERCENT DISCREPANCY =          -0.00






         TIME SUMMARY AT END OF TIME STEP   50 IN STRESS PERIOD    1
                    SECONDS     MINUTES      HOURS       DAYS        YEARS
                    -----------------------------------------------------------
   TIME STEP LENGTH 1.44676E+08 2.41127E+06  40188.      1674.5      4.5845    
 STRESS PERIOD TIME 1.57788E+09 2.62980E+07 4.38300E+05  18263.      50.000    
         TOTAL TIME 1.57788E+09 2.62980E+07 4.38300E+05  18263.      50.000    
1
1
                            STRESS PERIOD NO.    2, LENGTH =  0.1577880E+10
                            -----------------------------------------------

                              NUMBER OF TIME STEPS =    50

                               MULTIPLIER FOR DELT =     1.100

                            INITIAL TIME STEP SIZE =   1355672.    

      0 WELLS

 REUSING SURF FROM LAST STRESS PERIOD

 REUSING EVTR FROM LAST STRESS PERIOD

 REUSING EXDP FROM LAST STRESS PERIOD

 REUSING NON-PARAMETER GHB CELLS FROM LAST STRESS PERIOD

      2 GHB CELLS

 REUSING RECH FROM LAST STRESS PERIOD

 REUSING STREAM SEGMENT DATA FROM LAST STRESS PERIOD
 
 SOLVING FOR HEAD 

     7 ITERATIONS FOR TIME STEP   1 IN STRESS PERIOD    2

 MAXIMUM HEAD CHANGE FOR EACH ITERATION:

    HEAD CHANGE   HEAD CHANGE   HEAD CHANGE   HEAD CHANGE   HEAD CHANGE
  LAYER,ROW,COL LAYER,ROW,COL LAYER,ROW,COL LAYER,ROW,COL LAYER,ROW,COL
 ----------------------------------------------------------------------
      2.001        0.4427        0.9329E-01    0.1936E-01    0.3983E-02
  (  1,  8,  4) (  1,  8,  4) (  1,  8,  4) (  1,  8,  4) (  1,  8,  4)
     0.8081E-03    0.1769E-03
  (  1,  8,  4) (  1,  8,  4)


 OUTPUT CONTROL FOR STRESS PERIOD    2   TIME STEP    1
    PRINT BUDGET
    PRINT HEAD FOR ALL LAYERS
    SAVE BUDGET
 UBUDSV SAVING "              ET" ON UNIT 59 AT TIME STEP  1, STRESS PERIOD    2

  HEAD DEP BOUNDS   PERIOD    2   STEP   1
 BOUNDARY      1   LAYER   1   ROW    13   COL     1   RATE   -0.215320    
 BOUNDARY      2   LAYER   1   ROW    14   COL     9   RATE    0.218865    



 STREAM LISTING     PERIOD      2   STEP        1

 LAYER ROW COL. STREAM  RCH.  FLOW INTO     FLOW TO   FLOW OUT OF   OVRLND.     DIRECT     STREAM       STREAM     STREAM     STREAM   STREAMBED  STREAMBED
                SEG.NO.  NO.  STRM. RCH.    AQUIFER    STRM. RCH.    RUNOFF     PRECIP       ET          HEAD       DEPTH      WIDTH   CONDCTNC.   GRADIENT

   1    1    1     1     1    2.5000E+01  2.4011E+00   2.2599E+01  0.000E+00  0.000E+00  0.000E+00  1.09421E+03  1.162E+00  1.282E+01  5.769E-01  1.387E+00
   1    2    2     1     2    2.2599E+01  3.5108E+00   1.9088E+01  0.000E+00  0.000E+00  0.000E+00  1.08917E+03  1.114E+00  1.219E+01  8.533E-01  1.371E+00
   1    3    3     1     3    1.9088E+01  2.7530E+00   1.6335E+01  0.000E+00  0.000E+00  0.000E+00  1.08348E+03  1.062E+00  1.130E+01  6.778E-01  1.354E+00
   1    3    4     1     4    1.6335E+01  2.3306E+00   1.4004E+01  0.000E+00  0.000E+00  0.000E+00  1.07842E+03  1.015E+00  1.046E+01  5.804E-01  1.338E+00
   1    4    5     2     1    4.0044E+00  2.5883E+00   1.4161E+00  0.000E+00  0.000E+00  0.000E+00  1.07225E+03  3.184E-01  1.200E+01  7.800E-01  1.106E+00
   1    5    6     2     2    1.4161E+00  1.4161E+00   0.0000E+00  0.000E+00  0.000E+00  0.000E+00  1.06656E+03  4.853E-02  1.200E+01  6.000E-01  1.016E+00
   1    6    6     2     3    0.0000E+00  0.0000E+00   0.0000E+00  0.000E+00  0.000E+00  0.000E+00  1.06179E+03  0.000E+00  1.200E+01  6.000E-01  1.000E+00
   1    7    6     2     4    0.0000E+00  0.0000E+00   0.0000E+00  0.000E+00  0.000E+00  0.000E+00  1.05708E+03  0.000E+00  1.200E+01  6.000E-01  1.000E+00
   1    8    6     2     5    0.0000E+00  0.0000E+00   0.0000E+00  0.000E+00  0.000E+00  0.000E+00  1.05236E+03  0.000E+00  1.200E+01  6.000E-01  1.000E+00
   1    3    5     3     1    1.0000E+01  2.8252E+00   7.1748E+00  0.000E+00  0.000E+00  0.000E+00  1.07555E+03  1.909E+00  9.636E+00  7.227E-01  1.955E+00
   1    3    6     3     2    7.1748E+00  2.4905E+00   4.6843E+00  0.000E+00  0.000E+00  0.000E+00  1.07264E+03  1.727E+00  8.909E+00  6.682E-01  1.864E+00
   1    3    7     3     3    4.6843E+00  1.9718E+00   2.7125E+00  0.000E+00  0.000E+00  0.000E+00  1.06987E+03  1.555E+00  8.218E+00  5.547E-01  1.777E+00
   1    4    8     3     4    2.7125E+00  2.2567E+00   4.5579E-01  0.000E+00  0.000E+00  0.000E+00  1.06682E+03  1.364E+00  7.455E+00  6.709E-01  1.682E+00
   1    5    8     3     5    4.5579E-01  4.5579E-01   0.0000E+00  0.000E+00  0.000E+00  0.000E+00  1.06362E+03  0.000E+00  6.655E+00  4.991E-01  1.582E+00
   1    6    8     3     6    0.0000E+00  0.0000E+00   0.0000E+00  0.000E+00  0.000E+00  0.000E+00  1.06055E+03  0.000E+00  6.145E+00  1.844E-01  1.000E+00
   1    5   10     4     1    1.0000E+01  9.0525E-01   9.0947E+00  0.000E+00  0.000E+00  0.000E+00  1.07835E+03  6.210E-01  1.000E+01  2.500E-01  1.207E+00
   1    5    9     4     2    9.0947E+00  1.7835E+00   7.3113E+00  0.000E+00  0.000E+00  0.000E+00  1.07148E+03  5.670E-01  1.000E+01  5.000E-01  1.189E+00
   1    6    8     4     3    7.3113E+00  1.2257E+00   6.0855E+00  0.000E+00  0.000E+00  0.000E+00  1.06368E+03  5.021E-01  1.000E+01  3.500E-01  1.167E+00
   1    6    8     5     1    6.0855E+00  1.4717E+00   4.6139E+00  0.000E+00  0.000E+00  0.000E+00  1.05854E+03  5.396E-01  1.039E+01  4.158E-01  1.180E+00
   1    7    7     5     2    4.6139E+00  1.4899E+00   3.1240E+00  0.000E+00  0.000E+00  0.000E+00  1.05398E+03  4.817E-01  8.558E+00  4.279E-01  1.161E+00
   1    8    7     5     3    3.1240E+00  8.2856E-01   2.2955E+00  0.000E+00  0.000E+00  0.000E+00  1.04968E+03  4.253E-01  6.911E+00  2.419E-01  1.142E+00
   1    8    6     5     4    2.2955E+00  4.9460E-01   1.8009E+00  0.000E+00  0.000E+00  0.000E+00  1.04664E+03  3.856E-01  5.844E+00  1.461E-01  1.129E+00
   1    9    6     6     1    1.8009E+00  1.8009E+00   0.0000E+00  0.000E+00  0.000E+00  0.000E+00  1.04278E+03  5.668E-02  1.200E+01  6.000E-01  1.019E+00
   1   10    7     6     2    0.0000E+00  0.0000E+00   0.0000E+00  0.000E+00  0.000E+00  0.000E+00  1.03818E+03  0.000E+00  1.200E+01  6.000E-01  1.000E+00
   1   11    7     6     3    0.0000E+00  0.0000E+00   0.0000E+00  0.000E+00  0.000E+00  0.000E+00  1.03364E+03  0.000E+00  1.200E+01  6.000E-01  1.000E+00
   1   12    7     6     4    0.0000E+00  0.0000E+00   0.0000E+00  0.000E+00  0.000E+00  0.000E+00  1.02909E+03  0.000E+00  1.200E+01  6.000E-01  1.000E+00
   1   13    7     6     5    0.0000E+00 -2.2448E-01   2.2448E-01  0.000E+00  0.000E+00  0.000E+00  1.02596E+03  4.765E-02  1.200E+01  2.400E-01 -3.118E-01
   1   14    9     7     1    1.5000E+02  3.4789E+00   1.4652E+02  0.000E+00  0.000E+00  0.000E+00  1.03986E+03  2.282E+00  5.527E+01  5.590E+00  2.074E-01
   1   13    8     7     2    1.4652E+02  7.3933E+00   1.3913E+02  0.000E+00  0.000E+00  0.000E+00  1.03475E+03  2.253E+00  5.514E+01  6.133E+00  4.018E-01
   1   13    7     7     3    1.3913E+02  1.5075E+01   1.2405E+02  0.000E+00  0.000E+00  0.000E+00  1.02961E+03  2.191E+00  5.486E+01  5.545E+00  9.062E-01
   1   13    6     8     1    1.2428E+02  1.5351E+01   1.0893E+02  0.000E+00  0.000E+00  0.000E+00  1.02444E+03  2.563E+00  3.716E+01  3.787E+00  1.351E+00
   1   13    5     8     2    1.0893E+02  1.4508E+01   9.4419E+01  0.000E+00  0.000E+00  0.000E+00  1.01806E+03  2.435E+00  3.530E+01  3.597E+00  1.344E+00
   1   13    4     8     3    9.4419E+01  1.0606E+01   8.3813E+01  0.000E+00  0.000E+00  0.000E+00  1.01169E+03  2.317E+00  3.360E+01  3.424E+00  1.033E+00
   1   13    3     8     4    8.3813E+01  5.4563E+00   7.8357E+01  0.000E+00  0.000E+00  0.000E+00  1.00536E+03  2.237E+00  3.243E+01  3.305E+00  5.503E-01
   1   13    2     8     5    7.8357E+01  1.1153E+00   7.7241E+01  0.000E+00  0.000E+00  0.000E+00  9.99077E+02  2.202E+00  3.193E+01  3.254E+00  1.143E-01
   1   13    1     8     6    7.7241E+01  7.7876E-01   7.6463E+01  0.000E+00  0.000E+00  0.000E+00  9.94067E+02  2.192E+00  3.178E+01  1.943E+00  1.336E-01



1
              HEAD IN LAYER   1 AT END OF TIME STEP   1 IN STRESS PERIOD    2
  ---------------------------------------------------------------------------

           1       2       3       4       5       6       7       8       9      10
 ...................................................................................
   1  1056.25 1033.42 6999.00 6999.00 6999.00 6999.00 6999.00 6999.00 6999.00 6999.00
   2  1035.58 1014.18  994.63 6999.00 6999.00  984.75  987.51  988.41 6999.00 6999.00
   3  6999.00  990.92  980.33  971.93  973.15  977.28  983.13  982.63 6999.00 6999.00
   4   970.37  970.28  965.97  959.09  957.69  957.88  964.75  978.08  974.97 6999.00
   5   961.81  955.13  950.46  946.48  947.63  951.79  955.46  961.11  969.05  979.25
   6   952.00  944.40  938.08  933.44  937.07  945.28  951.93  957.81  963.82  976.79
   7   946.59  938.61  931.91  927.20  932.49  942.56  950.37  954.18  962.68 6999.00
   8  6999.00  939.13  932.71  928.03  934.40  944.81  951.56  956.13  965.73 6999.00
   9  6999.00  947.34  941.49  937.18  943.13  952.72  958.43  964.59  974.69 6999.00
  10  6999.00  961.58  957.17  953.26  957.21  964.65  969.94  977.19  986.86  991.98
  11  6999.00  979.03  978.65  974.63  976.69  981.30  985.63  992.87 1000.31 6999.00
  12   993.80  993.42  995.21  993.22  995.74 1000.08 1004.73 1014.23 1019.97 6999.00
  13   993.67  998.73 1003.71 1008.59 1014.03 1020.38 1026.89 1033.55 1034.51 6999.00
  14  6999.00 1001.95 1005.80 1009.78 1014.78 1020.58 1027.38 1034.42 1039.24 6999.00
  15  6999.00 6999.00 1008.57 1011.41 1015.34 1018.84 6999.00 6999.00 6999.00 6999.00
1
  VOLUMETRIC BUDGET FOR ENTIRE MODEL AT END OF TIME STEP    1, STRESS PERIOD   2
  ------------------------------------------------------------------------------

     CUMULATIVE VOLUMES      L**3       RATES FOR THIS TIME STEP      L**3/T
     ------------------                 ------------------------

           IN:                                      IN:
           ---                                      ---
             STORAGE = 30218797056.0000               STORAGE =           1.7986
       CONSTANT HEAD =           0.0000         CONSTANT HEAD =           0.0000
               WELLS =           0.0000                 WELLS =           0.0000
                  ET =           0.0000                    ET =           0.0000
     HEAD DEP BOUNDS =   344147616.0000       HEAD DEP BOUNDS =           0.2189
            RECHARGE =  2832754176.0000              RECHARGE =           1.7937
      STREAM LEAKAGE =149717073920.0000        STREAM LEAKAGE =         108.7619

            TOTAL IN =183112777728.0000              TOTAL IN =         112.5731

          OUT:                                     OUT:
          ----                                     ----
             STORAGE =   134489344.0000               STORAGE =          97.9184
       CONSTANT HEAD =           0.0000         CONSTANT HEAD =           0.0000
               WELLS =157788012544.0000                 WELLS =           0.0000
                  ET = 24010817536.0000                    ET =          14.2178
     HEAD DEP BOUNDS =   351732608.0000       HEAD DEP BOUNDS =           0.2153
            RECHARGE =           0.0000              RECHARGE =           0.0000
      STREAM LEAKAGE =   830879808.0000        STREAM LEAKAGE =           0.2245

           TOTAL OUT =183115939840.0000             TOTAL OUT =         112.5760

            IN - OUT =    -3162112.0000              IN - OUT =      -2.8839E-03

 PERCENT DISCREPANCY =          -0.00     PERCENT DISCREPANCY =          -0.00






         TIME SUMMARY AT END OF TIME STEP    1 IN STRESS PERIOD    2
                    SECONDS     MINUTES      HOURS       DAYS        YEARS
                    -----------------------------------------------------------
   TIME STEP LENGTH 1.35567E+06  22595.      376.58      15.691     4.29587E-02
 STRESS PERIOD TIME 1.35567E+06  22595.      376.58      15.691     4.29587E-02
         TOTAL TIME 1.57924E+09 2.63206E+07 4.38677E+05  18278.      50.043    
1
 
 SOLVING FOR HEAD 
     7 ITERATIONS FOR TIME STEP   2 IN STRESS PERIOD    2

 MAXIMUM HEAD CHANGE FOR EACH ITERATION:

    HEAD CHANGE   HEAD CHANGE   HEAD CHANGE   HEAD CHANGE   HEAD CHANGE
  LAYER,ROW,COL LAYER,ROW,COL LAYER,ROW,COL LAYER,ROW,COL LAYER,ROW,COL
 ----------------------------------------------------------------------
      2.051        0.4575        0.9679E-01    0.2014E-01    0.4147E-02
  (  1,  8,  4) (  1,  8,  4) (  1,  8,  4) (  1,  8,  4) (  1,  8,  4)
     0.8412E-03    0.1857E-03
  (  1,  8,  4) (  1,  8,  4)


 NO OUTPUT CONTROL FOR STRESS PERIOD    2   TIME STEP    2
 
 SOLVING FOR HEAD 
     7 ITERATIONS FOR TIME STEP   3 IN STRESS PERIOD    2

 MAXIMUM HEAD CHANGE FOR EACH ITERATION:

    HEAD CHANGE   HEAD CHANGE   HEAD CHANGE   HEAD CHANGE   HEAD CHANGE
  LAYER,ROW,COL LAYER,ROW,COL LAYER,ROW,COL LAYER,ROW,COL LAYER,ROW,COL
 ----------------------------------------------------------------------
      2.067        0.4663        0.9917E-01    0.2070E-01    0.4265E-02
  (  1,  8,  4) (  1,  8,  4) (  1,  8,  4) (  1,  8,  4) (  1,  8,  4)
     0.8638E-03    0.1930E-03
  (  1,  8,  4) (  1,  8,  4)


 NO OUTPUT CONTROL FOR STRESS PERIOD    2   TIME STEP    3
 
 SOLVING FOR HEAD 
     7 ITERATIONS FOR TIME STEP   4 IN STRESS PERIOD    2

 MAXIMUM HEAD CHANGE FOR EACH ITERATION:

    HEAD CHANGE   HEAD CHANGE   HEAD CHANGE   HEAD CHANGE   HEAD CHANGE
  LAYER,ROW,COL LAYER,ROW,COL LAYER,ROW,COL LAYER,ROW,COL LAYER,ROW,COL
 ----------------------------------------------------------------------
      2.056        0.4703        0.1007        0.2108E-01    0.4348E-02
  (  1,  8,  4) (  1,  8,  4) (  1,  8,  4) (  1,  8,  4) (  1,  8,  4)
     0.8783E-03    0.1994E-03
  (  1,  8,  4) (  1,  8,  4)


 NO OUTPUT CONTROL FOR STRESS PERIOD    2   TIME STEP    4
 
 SOLVING FOR HEAD 
     7 ITERATIONS FOR TIME STEP   5 IN STRESS PERIOD    2

 MAXIMUM HEAD CHANGE FOR EACH ITERATION:

    HEAD CHANGE   HEAD CHANGE   HEAD CHANGE   HEAD CHANGE   HEAD CHANGE
  LAYER,ROW,COL LAYER,ROW,COL LAYER,ROW,COL LAYER,ROW,COL LAYER,ROW,COL
 ----------------------------------------------------------------------
      2.023        0.4711        0.1018        0.2138E-01    0.4413E-02
  (  1,  8,  4) (  1,  8,  4) (  1,  8,  4) (  1,  8,  4) (  1,  8,  4)
     0.8878E-03    0.2054E-03
  (  1,  8,  4) (  1,  8,  4)


 OUTPUT CONTROL FOR STRESS PERIOD    2   TIME STEP    5
    PRINT BUDGET
    PRINT HEAD FOR ALL LAYERS
    SAVE BUDGET
 UBUDSV SAVING "              ET" ON UNIT 59 AT TIME STEP  5, STRESS PERIOD    2

  HEAD DEP BOUNDS   PERIOD    2   STEP   5
 BOUNDARY      1   LAYER   1   ROW    13   COL     1   RATE   -0.215581    
 BOUNDARY      2   LAYER   1   ROW    14   COL     9   RATE    0.218869    



 STREAM LISTING     PERIOD      2   STEP        5

 LAYER ROW COL. STREAM  RCH.  FLOW INTO     FLOW TO   FLOW OUT OF   OVRLND.     DIRECT     STREAM       STREAM     STREAM     STREAM   STREAMBED  STREAMBED
                SEG.NO.  NO.  STRM. RCH.    AQUIFER    STRM. RCH.    RUNOFF     PRECIP       ET          HEAD       DEPTH      WIDTH   CONDCTNC.   GRADIENT

   1    1    1     1     1    2.5000E+01  2.4011E+00   2.2599E+01  0.000E+00  0.000E+00  0.000E+00  1.09421E+03  1.162E+00  1.282E+01  5.769E-01  1.387E+00
   1    2    2     1     2    2.2599E+01  3.5108E+00   1.9088E+01  0.000E+00  0.000E+00  0.000E+00  1.08917E+03  1.114E+00  1.219E+01  8.533E-01  1.371E+00
   1    3    3     1     3    1.9088E+01  2.7530E+00   1.6335E+01  0.000E+00  0.000E+00  0.000E+00  1.08348E+03  1.062E+00  1.130E+01  6.778E-01  1.354E+00
   1    3    4     1     4    1.6335E+01  2.3306E+00   1.4004E+01  0.000E+00  0.000E+00  0.000E+00  1.07842E+03  1.015E+00  1.046E+01  5.804E-01  1.338E+00
   1    4    5     2     1    4.0044E+00  2.5883E+00   1.4161E+00  0.000E+00  0.000E+00  0.000E+00  1.07225E+03  3.184E-01  1.200E+01  7.800E-01  1.106E+00
   1    5    6     2     2    1.4161E+00  1.4161E+00   0.0000E+00  0.000E+00  0.000E+00  0.000E+00  1.06656E+03  4.853E-02  1.200E+01  6.000E-01  1.016E+00
   1    6    6     2     3    0.0000E+00  0.0000E+00   0.0000E+00  0.000E+00  0.000E+00  0.000E+00  1.06179E+03  0.000E+00  1.200E+01  6.000E-01  1.000E+00
   1    7    6     2     4    0.0000E+00  0.0000E+00   0.0000E+00  0.000E+00  0.000E+00  0.000E+00  1.05708E+03  0.000E+00  1.200E+01  6.000E-01  1.000E+00
   1    8    6     2     5    0.0000E+00  0.0000E+00   0.0000E+00  0.000E+00  0.000E+00  0.000E+00  1.05236E+03  0.000E+00  1.200E+01  6.000E-01  1.000E+00
   1    3    5     3     1    1.0000E+01  2.8252E+00   7.1748E+00  0.000E+00  0.000E+00  0.000E+00  1.07555E+03  1.909E+00  9.636E+00  7.227E-01  1.955E+00
   1    3    6     3     2    7.1748E+00  2.4905E+00   4.6843E+00  0.000E+00  0.000E+00  0.000E+00  1.07264E+03  1.727E+00  8.909E+00  6.682E-01  1.864E+00
   1    3    7     3     3    4.6843E+00  1.9718E+00   2.7125E+00  0.000E+00  0.000E+00  0.000E+00  1.06987E+03  1.555E+00  8.218E+00  5.547E-01  1.777E+00
   1    4    8     3     4    2.7125E+00  2.2567E+00   4.5579E-01  0.000E+00  0.000E+00  0.000E+00  1.06682E+03  1.364E+00  7.455E+00  6.709E-01  1.682E+00
   1    5    8     3     5    4.5579E-01  4.5579E-01   0.0000E+00  0.000E+00  0.000E+00  0.000E+00  1.06362E+03  0.000E+00  6.655E+00  4.991E-01  1.582E+00
   1    6    8     3     6    0.0000E+00  0.0000E+00   0.0000E+00  0.000E+00  0.000E+00  0.000E+00  1.06055E+03  0.000E+00  6.145E+00  1.844E-01  1.000E+00
   1    5   10     4     1    1.0000E+01  9.0525E-01   9.0947E+00  0.000E+00  0.000E+00  0.000E+00  1.07835E+03  6.210E-01  1.000E+01  2.500E-01  1.207E+00
   1    5    9     4     2    9.0947E+00  1.7835E+00   7.3113E+00  0.000E+00  0.000E+00  0.000E+00  1.07148E+03  5.670E-01  1.000E+01  5.000E-01  1.189E+00
   1    6    8     4     3    7.3113E+00  1.2257E+00   6.0855E+00  0.000E+00  0.000E+00  0.000E+00  1.06368E+03  5.021E-01  1.000E+01  3.500E-01  1.167E+00
   1    6    8     5     1    6.0855E+00  1.4717E+00   4.6139E+00  0.000E+00  0.000E+00  0.000E+00  1.05854E+03  5.396E-01  1.039E+01  4.158E-01  1.180E+00
   1    7    7     5     2    4.6139E+00  1.4899E+00   3.1240E+00  0.000E+00  0.000E+00  0.000E+00  1.05398E+03  4.817E-01  8.558E+00  4.279E-01  1.161E+00
   1    8    7     5     3    3.1240E+00  8.2856E-01   2.2955E+00  0.000E+00  0.000E+00  0.000E+00  1.04968E+03  4.253E-01  6.911E+00  2.419E-01  1.142E+00
   1    8    6     5     4    2.2955E+00  4.9460E-01   1.8009E+00  0.000E+00  0.000E+00  0.000E+00  1.04664E+03  3.856E-01  5.844E+00  1.461E-01  1.129E+00
   1    9    6     6     1    1.8009E+00  1.8009E+00   0.0000E+00  0.000E+00  0.000E+00  0.000E+00  1.04278E+03  5.668E-02  1.200E+01  6.000E-01  1.019E+00
   1   10    7     6     2    0.0000E+00  0.0000E+00   0.0000E+00  0.000E+00  0.000E+00  0.000E+00  1.03818E+03  0.000E+00  1.200E+01  6.000E-01  1.000E+00
   1   11    7     6     3    0.0000E+00  0.0000E+00   0.0000E+00  0.000E+00  0.000E+00  0.000E+00  1.03364E+03  0.000E+00  1.200E+01  6.000E-01  1.000E+00
   1   12    7     6     4    0.0000E+00  0.0000E+00   0.0000E+00  0.000E+00  0.000E+00  0.000E+00  1.02909E+03  0.000E+00  1.200E+01  6.000E-01  1.000E+00
   1   13    7     6     5    0.0000E+00 -2.2775E-01   2.2775E-01  0.000E+00  0.000E+00  0.000E+00  1.02596E+03  4.807E-02  1.200E+01  2.400E-01 -3.163E-01
   1   14    9     7     1    1.5000E+02  3.4795E+00   1.4652E+02  0.000E+00  0.000E+00  0.000E+00  1.03986E+03  2.282E+00  5.527E+01  5.590E+00  2.075E-01
   1   13    8     7     2    1.4652E+02  7.3872E+00   1.3913E+02  0.000E+00  0.000E+00  0.000E+00  1.03475E+03  2.253E+00  5.514E+01  6.133E+00  4.015E-01
   1   13    7     7     3    1.3913E+02  1.4999E+01   1.2413E+02  0.000E+00  0.000E+00  0.000E+00  1.02961E+03  2.191E+00  5.486E+01  5.546E+00  9.016E-01
   1   13    6     8     1    1.2436E+02  1.5172E+01   1.0919E+02  0.000E+00  0.000E+00  0.000E+00  1.02444E+03  2.564E+00  3.718E+01  3.789E+00  1.335E+00
   1   13    5     8     2    1.0919E+02  1.4179E+01   9.5011E+01  0.000E+00  0.000E+00  0.000E+00  1.01806E+03  2.438E+00  3.536E+01  3.603E+00  1.312E+00
   1   13    4     8     3    9.5011E+01  1.0326E+01   8.4686E+01  0.000E+00  0.000E+00  0.000E+00  1.01170E+03  2.324E+00  3.370E+01  3.434E+00  1.002E+00
   1   13    3     8     4    8.4686E+01  5.3797E+00   7.9306E+01  0.000E+00  0.000E+00  0.000E+00  1.00537E+03  2.246E+00  3.257E+01  3.319E+00  5.403E-01
   1   13    2     8     5    7.9306E+01  1.1177E+00   7.8188E+01  0.000E+00  0.000E+00  0.000E+00  9.99087E+02  2.212E+00  3.208E+01  3.269E+00  1.140E-01
   1   13    1     8     6    7.8188E+01  7.8851E-01   7.7400E+01  0.000E+00  0.000E+00  0.000E+00  9.94077E+02  2.202E+00  3.193E+01  1.952E+00  1.346E-01



1
              HEAD IN LAYER   1 AT END OF TIME STEP   5 IN STRESS PERIOD    2
  ---------------------------------------------------------------------------

           1       2       3       4       5       6       7       8       9      10
 ...................................................................................
   1  1056.21 1033.35 6999.00 6999.00 6999.00 6999.00 6999.00 6999.00 6999.00 6999.00
   2  1035.50 1014.09  994.54 6999.00 6999.00  984.65  987.41  988.30 6999.00 6999.00
   3  6999.00  990.83  980.31  972.07  973.26  977.28  983.05  982.53 6999.00 6999.00
   4   970.26  970.19  966.14  959.89  958.48  958.31  964.79  978.00  974.87 6999.00
   5   961.70  955.14  951.33  949.35  950.18  952.97  955.84  961.16  968.98  979.17
   6   951.89  944.59  940.55  941.18  943.69  947.94  952.72  957.96  963.74  976.71
   7   946.48  938.87  935.04  937.08  940.86  946.01  951.43  954.41  962.60 6999.00
   8  6999.00  939.30  935.75  938.59  943.20  948.52  952.81  956.21  965.65 6999.00
   9  6999.00  947.54  944.41  947.13  951.34  956.29  959.67  964.68  974.63 6999.00
  10  6999.00  961.77  959.51  960.91  963.60  967.42  970.95  977.31  986.82  991.94
  11  6999.00  979.10  979.47  977.43  979.22  982.56  986.12  992.93 1000.29 6999.00
  12   993.80  993.45  995.47  993.99  996.50 1000.50 1004.90 1014.25 1019.97 6999.00
  13   993.67  998.75 1003.75 1008.69 1014.13 1020.44 1026.91 1033.55 1034.51 6999.00
  14  6999.00 1001.95 1005.81 1009.80 1014.80 1020.58 1027.38 1034.42 1039.24 6999.00
  15  6999.00 6999.00 1008.57 1011.40 1015.33 1018.84 6999.00 6999.00 6999.00 6999.00
1
  VOLUMETRIC BUDGET FOR ENTIRE MODEL AT END OF TIME STEP    5, STRESS PERIOD   2
  ------------------------------------------------------------------------------

     CUMULATIVE VOLUMES      L**3       RATES FOR THIS TIME STEP      L**3/T
     ------------------                 ------------------------

           IN:                                      IN:
           ---                                      ---
             STORAGE = 30226294784.0000               STORAGE =           0.8959
       CONSTANT HEAD =           0.0000         CONSTANT HEAD =           0.0000
               WELLS =           0.0000                 WELLS =           0.0000
                  ET =           0.0000                    ET =           0.0000
     HEAD DEP BOUNDS =   345662336.0000       HEAD DEP BOUNDS =           0.2189
            RECHARGE =  2845168384.0000              RECHARGE =           1.7937
      STREAM LEAKAGE =150466510848.0000        STREAM LEAKAGE =         107.8281

            TOTAL IN =183883644928.0000              TOTAL IN =         110.7366

          OUT:                                     OUT:
          ----                                     ----
             STORAGE =   803736128.0000               STORAGE =          96.0256
       CONSTANT HEAD =           0.0000         CONSTANT HEAD =           0.0000
               WELLS =157788012544.0000                 WELLS =           0.0000
                  ET = 24109398016.0000                    ET =          14.2689
     HEAD DEP BOUNDS =   353223680.0000       HEAD DEP BOUNDS =           0.2156
            RECHARGE =           0.0000              RECHARGE =           0.0000
      STREAM LEAKAGE =   832443776.0000        STREAM LEAKAGE =           0.2278

           TOTAL OUT =183886807040.0000             TOTAL OUT =         110.7379

            IN - OUT =    -3162112.0000              IN - OUT =      -1.2894E-03

 PERCENT DISCREPANCY =          -0.00     PERCENT DISCREPANCY =          -0.00






         TIME SUMMARY AT END OF TIME STEP    5 IN STRESS PERIOD    2
                    SECONDS     MINUTES      HOURS       DAYS        YEARS
                    -----------------------------------------------------------
   TIME STEP LENGTH 1.98484E+06  33081.      551.34      22.973     6.28958E-02
 STRESS PERIOD TIME 8.27652E+06 1.37942E+05  2299.0      95.793     0.26227    
         TOTAL TIME 1.58616E+09 2.64359E+07 4.40599E+05  18358.      50.262    
1
 
 SOLVING FOR HEAD 
     7 ITERATIONS FOR TIME STEP   6 IN STRESS PERIOD    2

 MAXIMUM HEAD CHANGE FOR EACH ITERATION:

    HEAD CHANGE   HEAD CHANGE   HEAD CHANGE   HEAD CHANGE   HEAD CHANGE
  LAYER,ROW,COL LAYER,ROW,COL LAYER,ROW,COL LAYER,ROW,COL LAYER,ROW,COL
 ----------------------------------------------------------------------
      1.976        0.4704        0.1027        0.2167E-01    0.4477E-02
  (  1,  8,  4) (  1,  8,  4) (  1,  8,  4) (  1,  8,  4) (  1,  8,  4)
     0.8950E-03    0.2124E-03
  (  1,  8,  4) (  1,  8,  4)


 NO OUTPUT CONTROL FOR STRESS PERIOD    2   TIME STEP    6
 
 SOLVING FOR HEAD 
     7 ITERATIONS FOR TIME STEP   7 IN STRESS PERIOD    2

 MAXIMUM HEAD CHANGE FOR EACH ITERATION:

    HEAD CHANGE   HEAD CHANGE   HEAD CHANGE   HEAD CHANGE   HEAD CHANGE
  LAYER,ROW,COL LAYER,ROW,COL LAYER,ROW,COL LAYER,ROW,COL LAYER,ROW,COL
 ----------------------------------------------------------------------
      1.923        0.4697        0.1040        0.2203E-01    0.4559E-02
  (  1,  8,  4) (  1,  8,  4) (  1,  8,  4) (  1,  8,  4) (  1,  8,  4)
     0.9041E-03    0.2209E-03
  (  1,  8,  4) (  1,  8,  4)


 NO OUTPUT CONTROL FOR STRESS PERIOD    2   TIME STEP    7
 
 SOLVING FOR HEAD 
     7 ITERATIONS FOR TIME STEP   8 IN STRESS PERIOD    2

 MAXIMUM HEAD CHANGE FOR EACH ITERATION:

    HEAD CHANGE   HEAD CHANGE   HEAD CHANGE   HEAD CHANGE   HEAD CHANGE
  LAYER,ROW,COL LAYER,ROW,COL LAYER,ROW,COL LAYER,ROW,COL LAYER,ROW,COL
 ----------------------------------------------------------------------
      1.867        0.4703        0.1059        0.2255E-01    0.4674E-02
  (  1,  8,  4) (  1,  8,  4) (  1,  8,  4) (  1,  8,  4) (  1,  8,  4)
     0.9178E-03    0.2357E-03
  (  1,  8,  4) (  1,  8,  5)


 NO OUTPUT CONTROL FOR STRESS PERIOD    2   TIME STEP    8
 
 SOLVING FOR HEAD 
     7 ITERATIONS FOR TIME STEP   9 IN STRESS PERIOD    2

 MAXIMUM HEAD CHANGE FOR EACH ITERATION:

    HEAD CHANGE   HEAD CHANGE   HEAD CHANGE   HEAD CHANGE   HEAD CHANGE
  LAYER,ROW,COL LAYER,ROW,COL LAYER,ROW,COL LAYER,ROW,COL LAYER,ROW,COL
 ----------------------------------------------------------------------
      1.814        0.4733        0.1086        0.2330E-01    0.4838E-02
  (  1,  8,  4) (  1,  8,  4) (  1,  8,  4) (  1,  8,  4) (  1,  8,  4)
     0.9393E-03    0.2597E-03
  (  1,  8,  4) (  1,  8,  5)


 NO OUTPUT CONTROL FOR STRESS PERIOD    2   TIME STEP    9
 
 SOLVING FOR HEAD 
     7 ITERATIONS FOR TIME STEP  10 IN STRESS PERIOD    2

 MAXIMUM HEAD CHANGE FOR EACH ITERATION:

    HEAD CHANGE   HEAD CHANGE   HEAD CHANGE   HEAD CHANGE   HEAD CHANGE
  LAYER,ROW,COL LAYER,ROW,COL LAYER,ROW,COL LAYER,ROW,COL LAYER,ROW,COL
 ----------------------------------------------------------------------
      1.765        0.4793        0.1147        0.2473E-01    0.5149E-02
  (  1,  8,  4) (  1,  8,  4) (  1,  8,  5) (  1,  8,  5) (  1,  8,  5)
     0.9708E-03    0.2892E-03
  (  1,  8,  4) (  1,  8,  5)


 OUTPUT CONTROL FOR STRESS PERIOD    2   TIME STEP   10
    PRINT BUDGET
    PRINT HEAD FOR ALL LAYERS
    SAVE BUDGET
 UBUDSV SAVING "              ET" ON UNIT 59 AT TIME STEP 10, STRESS PERIOD    2

  HEAD DEP BOUNDS   PERIOD    2   STEP  10
 BOUNDARY      1   LAYER   1   ROW    13   COL     1   RATE   -0.217332    
 BOUNDARY      2   LAYER   1   ROW    14   COL     9   RATE    0.218855    



 STREAM LISTING     PERIOD      2   STEP       10

 LAYER ROW COL. STREAM  RCH.  FLOW INTO     FLOW TO   FLOW OUT OF   OVRLND.     DIRECT     STREAM       STREAM     STREAM     STREAM   STREAMBED  STREAMBED
                SEG.NO.  NO.  STRM. RCH.    AQUIFER    STRM. RCH.    RUNOFF     PRECIP       ET          HEAD       DEPTH      WIDTH   CONDCTNC.   GRADIENT

   1    1    1     1     1    2.5000E+01  2.4011E+00   2.2599E+01  0.000E+00  0.000E+00  0.000E+00  1.09421E+03  1.162E+00  1.282E+01  5.769E-01  1.387E+00
   1    2    2     1     2    2.2599E+01  3.5108E+00   1.9088E+01  0.000E+00  0.000E+00  0.000E+00  1.08917E+03  1.114E+00  1.219E+01  8.533E-01  1.371E+00
   1    3    3     1     3    1.9088E+01  2.7530E+00   1.6335E+01  0.000E+00  0.000E+00  0.000E+00  1.08348E+03  1.062E+00  1.130E+01  6.778E-01  1.354E+00
   1    3    4     1     4    1.6335E+01  2.3306E+00   1.4004E+01  0.000E+00  0.000E+00  0.000E+00  1.07842E+03  1.015E+00  1.046E+01  5.804E-01  1.338E+00
   1    4    5     2     1    4.0044E+00  2.5883E+00   1.4161E+00  0.000E+00  0.000E+00  0.000E+00  1.07225E+03  3.184E-01  1.200E+01  7.800E-01  1.106E+00
   1    5    6     2     2    1.4161E+00  1.4161E+00   0.0000E+00  0.000E+00  0.000E+00  0.000E+00  1.06656E+03  4.853E-02  1.200E+01  6.000E-01  1.016E+00
   1    6    6     2     3    0.0000E+00  0.0000E+00   0.0000E+00  0.000E+00  0.000E+00  0.000E+00  1.06179E+03  0.000E+00  1.200E+01  6.000E-01  1.000E+00
   1    7    6     2     4    0.0000E+00  0.0000E+00   0.0000E+00  0.000E+00  0.000E+00  0.000E+00  1.05708E+03  0.000E+00  1.200E+01  6.000E-01  1.000E+00
   1    8    6     2     5    0.0000E+00  0.0000E+00   0.0000E+00  0.000E+00  0.000E+00  0.000E+00  1.05236E+03  0.000E+00  1.200E+01  6.000E-01  1.000E+00
   1    3    5     3     1    1.0000E+01  2.8252E+00   7.1748E+00  0.000E+00  0.000E+00  0.000E+00  1.07555E+03  1.909E+00  9.636E+00  7.227E-01  1.955E+00
   1    3    6     3     2    7.1748E+00  2.4905E+00   4.6843E+00  0.000E+00  0.000E+00  0.000E+00  1.07264E+03  1.727E+00  8.909E+00  6.682E-01  1.864E+00
   1    3    7     3     3    4.6843E+00  1.9718E+00   2.7125E+00  0.000E+00  0.000E+00  0.000E+00  1.06987E+03  1.555E+00  8.218E+00  5.547E-01  1.777E+00
   1    4    8     3     4    2.7125E+00  2.2567E+00   4.5579E-01  0.000E+00  0.000E+00  0.000E+00  1.06682E+03  1.364E+00  7.455E+00  6.709E-01  1.682E+00
   1    5    8     3     5    4.5579E-01  4.5579E-01   0.0000E+00  0.000E+00  0.000E+00  0.000E+00  1.06362E+03  0.000E+00  6.655E+00  4.991E-01  1.582E+00
   1    6    8     3     6    0.0000E+00  0.0000E+00   0.0000E+00  0.000E+00  0.000E+00  0.000E+00  1.06055E+03  0.000E+00  6.145E+00  1.844E-01  1.000E+00
   1    5   10     4     1    1.0000E+01  9.0525E-01   9.0947E+00  0.000E+00  0.000E+00  0.000E+00  1.07835E+03  6.210E-01  1.000E+01  2.500E-01  1.207E+00
   1    5    9     4     2    9.0947E+00  1.7835E+00   7.3113E+00  0.000E+00  0.000E+00  0.000E+00  1.07148E+03  5.670E-01  1.000E+01  5.000E-01  1.189E+00
   1    6    8     4     3    7.3113E+00  1.2257E+00   6.0855E+00  0.000E+00  0.000E+00  0.000E+00  1.06368E+03  5.021E-01  1.000E+01  3.500E-01  1.167E+00
   1    6    8     5     1    6.0855E+00  1.4717E+00   4.6139E+00  0.000E+00  0.000E+00  0.000E+00  1.05854E+03  5.396E-01  1.039E+01  4.158E-01  1.180E+00
   1    7    7     5     2    4.6139E+00  1.4899E+00   3.1240E+00  0.000E+00  0.000E+00  0.000E+00  1.05398E+03  4.817E-01  8.558E+00  4.279E-01  1.161E+00
   1    8    7     5     3    3.1240E+00  8.2856E-01   2.2955E+00  0.000E+00  0.000E+00  0.000E+00  1.04968E+03  4.253E-01  6.911E+00  2.419E-01  1.142E+00
   1    8    6     5     4    2.2955E+00  4.9460E-01   1.8009E+00  0.000E+00  0.000E+00  0.000E+00  1.04664E+03  3.856E-01  5.844E+00  1.461E-01  1.129E+00
   1    9    6     6     1    1.8009E+00  1.8009E+00   0.0000E+00  0.000E+00  0.000E+00  0.000E+00  1.04278E+03  5.668E-02  1.200E+01  6.000E-01  1.019E+00
   1   10    7     6     2    0.0000E+00  0.0000E+00   0.0000E+00  0.000E+00  0.000E+00  0.000E+00  1.03818E+03  0.000E+00  1.200E+01  6.000E-01  1.000E+00
   1   11    7     6     3    0.0000E+00  0.0000E+00   0.0000E+00  0.000E+00  0.000E+00  0.000E+00  1.03364E+03  0.000E+00  1.200E+01  6.000E-01  1.000E+00
   1   12    7     6     4    0.0000E+00  0.0000E+00   0.0000E+00  0.000E+00  0.000E+00  0.000E+00  1.02909E+03  0.000E+00  1.200E+01  6.000E-01  1.000E+00
   1   13    7     6     5    0.0000E+00 -2.5261E-01   2.5261E-01  0.000E+00  0.000E+00  0.000E+00  1.02596E+03  5.115E-02  1.200E+01  2.400E-01 -3.508E-01
   1   14    9     7     1    1.5000E+02  3.4773E+00   1.4652E+02  0.000E+00  0.000E+00  0.000E+00  1.03986E+03  2.282E+00  5.527E+01  5.590E+00  2.073E-01
   1   13    8     7     2    1.4652E+02  7.3043E+00   1.3922E+02  0.000E+00  0.000E+00  0.000E+00  1.03475E+03  2.253E+00  5.514E+01  6.134E+00  3.970E-01
   1   13    7     7     3    1.3922E+02  1.4422E+01   1.2480E+02  0.000E+00  0.000E+00  0.000E+00  1.02961E+03  2.194E+00  5.487E+01  5.547E+00  8.667E-01
   1   13    6     8     1    1.2505E+02  1.4296E+01   1.1075E+02  0.000E+00  0.000E+00  0.000E+00  1.02445E+03  2.574E+00  3.732E+01  3.803E+00  1.253E+00
   1   13    5     8     2    1.1075E+02  1.2994E+01   9.7759E+01  0.000E+00  0.000E+00  0.000E+00  1.01808E+03  2.458E+00  3.564E+01  3.631E+00  1.193E+00
   1   13    4     8     3    9.7759E+01  9.2974E+00   8.8462E+01  0.000E+00  0.000E+00  0.000E+00  1.01173E+03  2.356E+00  3.416E+01  3.481E+00  8.904E-01
   1   13    3     8     4    8.8462E+01  4.8829E+00   8.3579E+01  0.000E+00  0.000E+00  0.000E+00  1.00541E+03  2.287E+00  3.316E+01  3.379E+00  4.817E-01
   1   13    2     8     5    8.3579E+01  1.0567E+00   8.2522E+01  0.000E+00  0.000E+00  0.000E+00  9.99132E+02  2.257E+00  3.272E+01  3.335E+00  1.056E-01
   1   13    1     8     6    8.2522E+01  8.0283E-01   8.1719E+01  0.000E+00  0.000E+00  0.000E+00  9.94122E+02  2.247E+00  3.258E+01  1.992E+00  1.343E-01



1
              HEAD IN LAYER   1 AT END OF TIME STEP  10 IN STRESS PERIOD    2
  ---------------------------------------------------------------------------

           1       2       3       4       5       6       7       8       9      10
 ...................................................................................
   1  1056.13 1033.23 6999.00 6999.00 6999.00 6999.00 6999.00 6999.00 6999.00 6999.00
   2  1035.37 1013.97  994.59 6999.00 6999.00  984.52  987.24  988.10 6999.00 6999.00
   3  6999.00  990.85  981.01  973.54  974.72  978.14  983.26  982.41 6999.00 6999.00
   4   970.07  970.42  967.75  963.02  961.73  960.95  965.99  978.27  974.72 6999.00
   5   961.56  956.01  954.93  955.09  955.50  956.90  958.31  962.37  969.25  979.07
   6   951.78  946.31  946.84  950.11  951.64  953.64  956.11  959.73  964.00  976.57
   7   946.39  941.08  943.14  948.45  950.78  953.15  955.72  956.65  962.52 6999.00
   8  6999.00  941.21  944.38  950.98  953.84  956.32  957.94  957.68  965.56 6999.00
   9  6999.00  949.38  952.33  958.43  961.06  963.57  964.61  966.01  974.60 6999.00
  10  6999.00  963.28  965.49  969.46  971.18  973.17  974.92  978.61  986.92  991.87
  11  6999.00  979.91  982.58  982.58  984.02  986.26  988.67  993.77 1000.37 6999.00
  12   993.85  993.83  996.76  996.26  998.78 1002.29 1006.12 1014.62 1020.01 6999.00
  13   993.72  998.81 1003.97 1009.06 1014.50 1020.69 1027.01 1033.56 1034.52 6999.00
  14  6999.00 1001.97 1005.88 1009.92 1014.92 1020.67 1027.42 1034.43 1039.24 6999.00
  15  6999.00 6999.00 1008.57 1011.41 1015.34 1018.85 6999.00 6999.00 6999.00 6999.00
1
  VOLUMETRIC BUDGET FOR ENTIRE MODEL AT END OF TIME STEP   10, STRESS PERIOD   2
  ------------------------------------------------------------------------------

     CUMULATIVE VOLUMES      L**3       RATES FOR THIS TIME STEP      L**3/T
     ------------------                 ------------------------

           IN:                                      IN:
           ---                                      ---
             STORAGE = 30233294848.0000               STORAGE =           0.3379
       CONSTANT HEAD =           0.0000         CONSTANT HEAD =           0.0000
               WELLS =           0.0000                 WELLS =           0.0000
                  ET =           0.0000                    ET =           0.0000
     HEAD DEP BOUNDS =   348579616.0000       HEAD DEP BOUNDS =           0.2189
            RECHARGE =  2869078016.0000              RECHARGE =           1.7937
      STREAM LEAKAGE =151870980096.0000        STREAM LEAKAGE =         103.5333

            TOTAL IN =185321947136.0000              TOTAL IN =         105.8838

          OUT:                                     OUT:
          ----                                     ----
             STORAGE =  2043920768.0000               STORAGE =          90.9093
       CONSTANT HEAD =           0.0000         CONSTANT HEAD =           0.0000
               WELLS =157788012544.0000                 WELLS =           0.0000
                  ET = 24301357056.0000                    ET =          14.4985
     HEAD DEP BOUNDS =   356110240.0000       HEAD DEP BOUNDS =           0.2173
            RECHARGE =           0.0000              RECHARGE =           0.0000
      STREAM LEAKAGE =   835660992.0000        STREAM LEAKAGE =           0.2526

           TOTAL OUT =185325060096.0000             TOTAL OUT =         105.8777

            IN - OUT =    -3112960.0000              IN - OUT =       6.0883E-03

 PERCENT DISCREPANCY =          -0.00     PERCENT DISCREPANCY =           0.01






         TIME SUMMARY AT END OF TIME STEP   10 IN STRESS PERIOD    2
                    SECONDS     MINUTES      HOURS       DAYS        YEARS
                    -----------------------------------------------------------
   TIME STEP LENGTH 3.19660E+06  53277.      887.95      36.998     0.10129    
 STRESS PERIOD TIME 2.16059E+07 3.60099E+05  6001.6      250.07     0.68465    
         TOTAL TIME 1.59949E+09 2.66581E+07 4.44302E+05  18513.      50.685    
1
 
 SOLVING FOR HEAD 
     7 ITERATIONS FOR TIME STEP  11 IN STRESS PERIOD    2

 MAXIMUM HEAD CHANGE FOR EACH ITERATION:

    HEAD CHANGE   HEAD CHANGE   HEAD CHANGE   HEAD CHANGE   HEAD CHANGE
  LAYER,ROW,COL LAYER,ROW,COL LAYER,ROW,COL LAYER,ROW,COL LAYER,ROW,COL
 ----------------------------------------------------------------------
      1.722        0.4887        0.1229        0.2678E-01    0.5593E-02
  (  1,  8,  4) (  1,  8,  4) (  1,  8,  5) (  1,  8,  5) (  1,  8,  5)
     0.1014E-02    0.3251E-03
  (  1,  8,  4) (  1,  8,  5)


 NO OUTPUT CONTROL FOR STRESS PERIOD    2   TIME STEP   11
 
 SOLVING FOR HEAD 
     7 ITERATIONS FOR TIME STEP  12 IN STRESS PERIOD    2

 MAXIMUM HEAD CHANGE FOR EACH ITERATION:

    HEAD CHANGE   HEAD CHANGE   HEAD CHANGE   HEAD CHANGE   HEAD CHANGE
  LAYER,ROW,COL LAYER,ROW,COL LAYER,ROW,COL LAYER,ROW,COL LAYER,ROW,COL
 ----------------------------------------------------------------------
      1.724        0.5075        0.1325        0.2924E-01    0.6126E-02
  (  1,  8,  3) (  1,  8,  5) (  1,  8,  5) (  1,  8,  5) (  1,  8,  5)
     0.1076E-02    0.3689E-03
  (  1,  8,  5) (  1,  8,  5)


 NO OUTPUT CONTROL FOR STRESS PERIOD    2   TIME STEP   12
 
 SOLVING FOR HEAD 
     7 ITERATIONS FOR TIME STEP  13 IN STRESS PERIOD    2

 MAXIMUM HEAD CHANGE FOR EACH ITERATION:

    HEAD CHANGE   HEAD CHANGE   HEAD CHANGE   HEAD CHANGE   HEAD CHANGE
  LAYER,ROW,COL LAYER,ROW,COL LAYER,ROW,COL LAYER,ROW,COL LAYER,ROW,COL
 ----------------------------------------------------------------------
      1.771        0.5324        0.1437        0.3218E-01    0.6764E-02
  (  1,  8,  3) (  1,  8,  5) (  1,  8,  5) (  1,  8,  5) (  1,  8,  5)
     0.1176E-02    0.4239E-03
  (  1,  7,  5) (  1,  7,  5)


 OUTPUT CONTROL FOR STRESS PERIOD    2   TIME STEP   13
    PRINT BUDGET
    PRINT HEAD FOR ALL LAYERS
    SAVE BUDGET
 UBUDSV SAVING "              ET" ON UNIT 59 AT TIME STEP 13, STRESS PERIOD    2

  HEAD DEP BOUNDS   PERIOD    2   STEP  13
 BOUNDARY      1   LAYER   1   ROW    13   COL     1   RATE   -0.219247    
 BOUNDARY      2   LAYER   1   ROW    14   COL     9   RATE    0.218809    



 STREAM LISTING     PERIOD      2   STEP       13

 LAYER ROW COL. STREAM  RCH.  FLOW INTO     FLOW TO   FLOW OUT OF   OVRLND.     DIRECT     STREAM       STREAM     STREAM     STREAM   STREAMBED  STREAMBED
                SEG.NO.  NO.  STRM. RCH.    AQUIFER    STRM. RCH.    RUNOFF     PRECIP       ET          HEAD       DEPTH      WIDTH   CONDCTNC.   GRADIENT

   1    1    1     1     1    2.5000E+01  2.4011E+00   2.2599E+01  0.000E+00  0.000E+00  0.000E+00  1.09421E+03  1.162E+00  1.282E+01  5.769E-01  1.387E+00
   1    2    2     1     2    2.2599E+01  3.5108E+00   1.9088E+01  0.000E+00  0.000E+00  0.000E+00  1.08917E+03  1.114E+00  1.219E+01  8.533E-01  1.371E+00
   1    3    3     1     3    1.9088E+01  2.7530E+00   1.6335E+01  0.000E+00  0.000E+00  0.000E+00  1.08348E+03  1.062E+00  1.130E+01  6.778E-01  1.354E+00
   1    3    4     1     4    1.6335E+01  2.3306E+00   1.4004E+01  0.000E+00  0.000E+00  0.000E+00  1.07842E+03  1.015E+00  1.046E+01  5.804E-01  1.338E+00
   1    4    5     2     1    4.0044E+00  2.5883E+00   1.4161E+00  0.000E+00  0.000E+00  0.000E+00  1.07225E+03  3.184E-01  1.200E+01  7.800E-01  1.106E+00
   1    5    6     2     2    1.4161E+00  1.4161E+00   0.0000E+00  0.000E+00  0.000E+00  0.000E+00  1.06656E+03  4.853E-02  1.200E+01  6.000E-01  1.016E+00
   1    6    6     2     3    0.0000E+00  0.0000E+00   0.0000E+00  0.000E+00  0.000E+00  0.000E+00  1.06179E+03  0.000E+00  1.200E+01  6.000E-01  1.000E+00
   1    7    6     2     4    0.0000E+00  0.0000E+00   0.0000E+00  0.000E+00  0.000E+00  0.000E+00  1.05708E+03  0.000E+00  1.200E+01  6.000E-01  1.000E+00
   1    8    6     2     5    0.0000E+00  0.0000E+00   0.0000E+00  0.000E+00  0.000E+00  0.000E+00  1.05236E+03  0.000E+00  1.200E+01  6.000E-01  1.000E+00
   1    3    5     3     1    1.0000E+01  2.8252E+00   7.1748E+00  0.000E+00  0.000E+00  0.000E+00  1.07555E+03  1.909E+00  9.636E+00  7.227E-01  1.955E+00
   1    3    6     3     2    7.1748E+00  2.4905E+00   4.6843E+00  0.000E+00  0.000E+00  0.000E+00  1.07264E+03  1.727E+00  8.909E+00  6.682E-01  1.864E+00
   1    3    7     3     3    4.6843E+00  1.9718E+00   2.7125E+00  0.000E+00  0.000E+00  0.000E+00  1.06987E+03  1.555E+00  8.218E+00  5.547E-01  1.777E+00
   1    4    8     3     4    2.7125E+00  2.2567E+00   4.5579E-01  0.000E+00  0.000E+00  0.000E+00  1.06682E+03  1.364E+00  7.455E+00  6.709E-01  1.682E+00
   1    5    8     3     5    4.5579E-01  4.5579E-01   0.0000E+00  0.000E+00  0.000E+00  0.000E+00  1.06362E+03  0.000E+00  6.655E+00  4.991E-01  1.582E+00
   1    6    8     3     6    0.0000E+00  0.0000E+00   0.0000E+00  0.000E+00  0.000E+00  0.000E+00  1.06055E+03  0.000E+00  6.145E+00  1.844E-01  1.000E+00
   1    5   10     4     1    1.0000E+01  9.0525E-01   9.0947E+00  0.000E+00  0.000E+00  0.000E+00  1.07835E+03  6.210E-01  1.000E+01  2.500E-01  1.207E+00
   1    5    9     4     2    9.0947E+00  1.7835E+00   7.3113E+00  0.000E+00  0.000E+00  0.000E+00  1.07148E+03  5.670E-01  1.000E+01  5.000E-01  1.189E+00
   1    6    8     4     3    7.3113E+00  1.2257E+00   6.0855E+00  0.000E+00  0.000E+00  0.000E+00  1.06368E+03  5.021E-01  1.000E+01  3.500E-01  1.167E+00
   1    6    8     5     1    6.0855E+00  1.4717E+00   4.6139E+00  0.000E+00  0.000E+00  0.000E+00  1.05854E+03  5.396E-01  1.039E+01  4.158E-01  1.180E+00
   1    7    7     5     2    4.6139E+00  1.4899E+00   3.1240E+00  0.000E+00  0.000E+00  0.000E+00  1.05398E+03  4.817E-01  8.558E+00  4.279E-01  1.161E+00
   1    8    7     5     3    3.1240E+00  8.2856E-01   2.2955E+00  0.000E+00  0.000E+00  0.000E+00  1.04968E+03  4.253E-01  6.911E+00  2.419E-01  1.142E+00
   1    8    6     5     4    2.2955E+00  4.9460E-01   1.8009E+00  0.000E+00  0.000E+00  0.000E+00  1.04664E+03  3.856E-01  5.844E+00  1.461E-01  1.129E+00
   1    9    6     6     1    1.8009E+00  1.8009E+00   0.0000E+00  0.000E+00  0.000E+00  0.000E+00  1.04278E+03  5.668E-02  1.200E+01  6.000E-01  1.019E+00
   1   10    7     6     2    0.0000E+00  0.0000E+00   0.0000E+00  0.000E+00  0.000E+00  0.000E+00  1.03818E+03  0.000E+00  1.200E+01  6.000E-01  1.000E+00
   1   11    7     6     3    0.0000E+00  0.0000E+00   0.0000E+00  0.000E+00  0.000E+00  0.000E+00  1.03364E+03  0.000E+00  1.200E+01  6.000E-01  1.000E+00
   1   12    7     6     4    0.0000E+00  0.0000E+00   0.0000E+00  0.000E+00  0.000E+00  0.000E+00  1.02909E+03  0.000E+00  1.200E+01  6.000E-01  1.000E+00
   1   13    7     6     5    0.0000E+00 -2.8164E-01   2.8164E-01  0.000E+00  0.000E+00  0.000E+00  1.02596E+03  5.460E-02  1.200E+01  2.400E-01 -3.912E-01
   1   14    9     7     1    1.5000E+02  3.4708E+00   1.4653E+02  0.000E+00  0.000E+00  0.000E+00  1.03986E+03  2.282E+00  5.527E+01  5.590E+00  2.070E-01
   1   13    8     7     2    1.4653E+02  7.1762E+00   1.3935E+02  0.000E+00  0.000E+00  0.000E+00  1.03475E+03  2.254E+00  5.514E+01  6.134E+00  3.900E-01
   1   13    7     7     3    1.3935E+02  1.3750E+01   1.2560E+02  0.000E+00  0.000E+00  0.000E+00  1.02962E+03  2.196E+00  5.488E+01  5.548E+00  8.261E-01
   1   13    6     8     1    1.2589E+02  1.3440E+01   1.1245E+02  0.000E+00  0.000E+00  0.000E+00  1.02446E+03  2.584E+00  3.747E+01  3.818E+00  1.173E+00
   1   13    5     8     2    1.1245E+02  1.1975E+01   1.0047E+02  0.000E+00  0.000E+00  0.000E+00  1.01810E+03  2.477E+00  3.592E+01  3.660E+00  1.091E+00
   1   13    4     8     3    1.0047E+02  8.4207E+00   9.2050E+01  0.000E+00  0.000E+00  0.000E+00  1.01176E+03  2.385E+00  3.459E+01  3.524E+00  7.964E-01
   1   13    3     8     4    9.2050E+01  4.3674E+00   8.7683E+01  0.000E+00  0.000E+00  0.000E+00  1.00545E+03  2.324E+00  3.371E+01  3.435E+00  4.239E-01
   1   13    2     8     5    8.7683E+01  9.6110E-01   8.6721E+01  0.000E+00  0.000E+00  0.000E+00  9.99173E+02  2.298E+00  3.333E+01  3.396E+00  9.433E-02
   1   13    1     8     6    8.6721E+01  8.0181E-01   8.5920E+01  0.000E+00  0.000E+00  0.000E+00  9.94165E+02  2.290E+00  3.320E+01  2.030E+00  1.317E-01



1
              HEAD IN LAYER   1 AT END OF TIME STEP  13 IN STRESS PERIOD    2
  ---------------------------------------------------------------------------

           1       2       3       4       5       6       7       8       9      10
 ...................................................................................
   1  1056.08 1033.15 6999.00 6999.00 6999.00 6999.00 6999.00 6999.00 6999.00 6999.00
   2  1035.28 1014.02  995.06 6999.00 6999.00  984.57  987.18  987.96 6999.00 6999.00
   3  6999.00  991.26  982.35  975.61  976.92  979.78  984.04  982.56 6999.00 6999.00
   4   970.01  971.16  969.93  966.19  965.10  964.07  968.01  979.14  974.72 6999.00
   5   961.60  957.60  958.51  959.51  959.82  960.68  961.33  964.43  970.15  979.14
   6   951.89  948.81  951.93  955.80  957.00  958.26  959.74  962.38  964.89  976.47
   7   946.51  944.20  949.39  955.12  956.96  958.49  959.98  959.78  962.62 6999.00
   8  6999.00  944.24  951.15  958.03  960.30  962.00  962.75  960.21  965.61 6999.00
   9  6999.00  952.20  958.52  964.91  967.03  968.88  969.19  968.26  974.74 6999.00
  10  6999.00  965.53  970.23  974.64  976.07  977.57  978.71  980.60  987.30  991.84
  11  6999.00  981.25  985.38  986.11  987.46  989.38  991.34  995.17 1000.68 6999.00
  12   993.98  994.43  998.02  998.08 1000.64 1003.97 1007.52 1015.27 1020.16 6999.00
  13   993.77  998.89 1004.18 1009.37 1014.83 1020.94 1027.14 1033.58 1034.53 6999.00
  14  6999.00 1002.00 1005.99 1010.09 1015.10 1020.80 1027.49 1034.44 1039.24 6999.00
  15  6999.00 6999.00 1008.59 1011.44 1015.38 1018.87 6999.00 6999.00 6999.00 6999.00
1
  VOLUMETRIC BUDGET FOR ENTIRE MODEL AT END OF TIME STEP   13, STRESS PERIOD   2
  ------------------------------------------------------------------------------

     CUMULATIVE VOLUMES      L**3       RATES FOR THIS TIME STEP      L**3/T
     ------------------                 ------------------------

           IN:                                      IN:
           ---                                      ---
             STORAGE = 30235324416.0000               STORAGE =           0.1318
       CONSTANT HEAD =           0.0000         CONSTANT HEAD =           0.0000
               WELLS =           0.0000                 WELLS =           0.0000
                  ET =           0.0000                    ET =           0.0000
     HEAD DEP BOUNDS =   351126496.0000       HEAD DEP BOUNDS =           0.2188
            RECHARGE =  2889955328.0000              RECHARGE =           1.7937
      STREAM LEAKAGE =153043435520.0000        STREAM LEAKAGE =          99.3620

            TOTAL IN =186519846912.0000              TOTAL IN =         101.5063

          OUT:                                     OUT:
          ----                                     ----
             STORAGE =  3065600512.0000               STORAGE =          86.2831
       CONSTANT HEAD =           0.0000         CONSTANT HEAD =           0.0000
               WELLS =157788012544.0000                 WELLS =           0.0000
                  ET = 24471801856.0000                    ET =          14.7155
     HEAD DEP BOUNDS =   358654592.0000       HEAD DEP BOUNDS =           0.2192
            RECHARGE =           0.0000              RECHARGE =           0.0000
      STREAM LEAKAGE =   838825408.0000        STREAM LEAKAGE =           0.2816

           TOTAL OUT =186522894336.0000             TOTAL OUT =         101.4996

            IN - OUT =    -3047424.0000              IN - OUT =       6.7596E-03

 PERCENT DISCREPANCY =          -0.00     PERCENT DISCREPANCY =           0.01






         TIME SUMMARY AT END OF TIME STEP   13 IN STRESS PERIOD    2
                    SECONDS     MINUTES      HOURS       DAYS        YEARS
                    -----------------------------------------------------------
   TIME STEP LENGTH 4.25468E+06  70911.      1181.9      49.244     0.13482    
 STRESS PERIOD TIME 3.32448E+07 5.54079E+05  9234.7      384.78      1.0535    
         TOTAL TIME 1.61112E+09 2.68521E+07 4.47535E+05  18647.      51.053    
1
 
 SOLVING FOR HEAD 
     7 ITERATIONS FOR TIME STEP  14 IN STRESS PERIOD    2

 MAXIMUM HEAD CHANGE FOR EACH ITERATION:

    HEAD CHANGE   HEAD CHANGE   HEAD CHANGE   HEAD CHANGE   HEAD CHANGE
  LAYER,ROW,COL LAYER,ROW,COL LAYER,ROW,COL LAYER,ROW,COL LAYER,ROW,COL
 ----------------------------------------------------------------------
      1.804        0.5603        0.1566        0.3569E-01    0.7554E-02
  (  1,  8,  3) (  1,  8,  5) (  1,  8,  5) (  1,  8,  5) (  1,  7,  5)
     0.1297E-02    0.4943E-03
  (  1,  7,  5) (  1,  7,  5)


 NO OUTPUT CONTROL FOR STRESS PERIOD    2   TIME STEP   14
 
 SOLVING FOR HEAD 
     7 ITERATIONS FOR TIME STEP  15 IN STRESS PERIOD    2

 MAXIMUM HEAD CHANGE FOR EACH ITERATION:

    HEAD CHANGE   HEAD CHANGE   HEAD CHANGE   HEAD CHANGE   HEAD CHANGE
  LAYER,ROW,COL LAYER,ROW,COL LAYER,ROW,COL LAYER,ROW,COL LAYER,ROW,COL
 ----------------------------------------------------------------------
      1.829        0.5909        0.1724        0.4018E-01    0.8564E-02
  (  1,  8,  3) (  1,  8,  5) (  1,  7,  5) (  1,  7,  5) (  1,  7,  5)
     0.1439E-02    0.5803E-03
  (  1,  7,  5) (  1,  7,  5)


 OUTPUT CONTROL FOR STRESS PERIOD    2   TIME STEP   15
    PRINT BUDGET
    PRINT HEAD FOR ALL LAYERS
    SAVE BUDGET
 UBUDSV SAVING "              ET" ON UNIT 59 AT TIME STEP 15, STRESS PERIOD    2

  HEAD DEP BOUNDS   PERIOD    2   STEP  15
 BOUNDARY      1   LAYER   1   ROW    13   COL     1   RATE   -0.220811    
 BOUNDARY      2   LAYER   1   ROW    14   COL     9   RATE    0.218745    



 STREAM LISTING     PERIOD      2   STEP       15

 LAYER ROW COL. STREAM  RCH.  FLOW INTO     FLOW TO   FLOW OUT OF   OVRLND.     DIRECT     STREAM       STREAM     STREAM     STREAM   STREAMBED  STREAMBED
                SEG.NO.  NO.  STRM. RCH.    AQUIFER    STRM. RCH.    RUNOFF     PRECIP       ET          HEAD       DEPTH      WIDTH   CONDCTNC.   GRADIENT

   1    1    1     1     1    2.5000E+01  2.4011E+00   2.2599E+01  0.000E+00  0.000E+00  0.000E+00  1.09421E+03  1.162E+00  1.282E+01  5.769E-01  1.387E+00
   1    2    2     1     2    2.2599E+01  3.5108E+00   1.9088E+01  0.000E+00  0.000E+00  0.000E+00  1.08917E+03  1.114E+00  1.219E+01  8.533E-01  1.371E+00
   1    3    3     1     3    1.9088E+01  2.7530E+00   1.6335E+01  0.000E+00  0.000E+00  0.000E+00  1.08348E+03  1.062E+00  1.130E+01  6.778E-01  1.354E+00
   1    3    4     1     4    1.6335E+01  2.3306E+00   1.4004E+01  0.000E+00  0.000E+00  0.000E+00  1.07842E+03  1.015E+00  1.046E+01  5.804E-01  1.338E+00
   1    4    5     2     1    4.0044E+00  2.5883E+00   1.4161E+00  0.000E+00  0.000E+00  0.000E+00  1.07225E+03  3.184E-01  1.200E+01  7.800E-01  1.106E+00
   1    5    6     2     2    1.4161E+00  1.4161E+00   0.0000E+00  0.000E+00  0.000E+00  0.000E+00  1.06656E+03  4.853E-02  1.200E+01  6.000E-01  1.016E+00
   1    6    6     2     3    0.0000E+00  0.0000E+00   0.0000E+00  0.000E+00  0.000E+00  0.000E+00  1.06179E+03  0.000E+00  1.200E+01  6.000E-01  1.000E+00
   1    7    6     2     4    0.0000E+00  0.0000E+00   0.0000E+00  0.000E+00  0.000E+00  0.000E+00  1.05708E+03  0.000E+00  1.200E+01  6.000E-01  1.000E+00
   1    8    6     2     5    0.0000E+00  0.0000E+00   0.0000E+00  0.000E+00  0.000E+00  0.000E+00  1.05236E+03  0.000E+00  1.200E+01  6.000E-01  1.000E+00
   1    3    5     3     1    1.0000E+01  2.8252E+00   7.1748E+00  0.000E+00  0.000E+00  0.000E+00  1.07555E+03  1.909E+00  9.636E+00  7.227E-01  1.955E+00
   1    3    6     3     2    7.1748E+00  2.4905E+00   4.6843E+00  0.000E+00  0.000E+00  0.000E+00  1.07264E+03  1.727E+00  8.909E+00  6.682E-01  1.864E+00
   1    3    7     3     3    4.6843E+00  1.9718E+00   2.7125E+00  0.000E+00  0.000E+00  0.000E+00  1.06987E+03  1.555E+00  8.218E+00  5.547E-01  1.777E+00
   1    4    8     3     4    2.7125E+00  2.2567E+00   4.5579E-01  0.000E+00  0.000E+00  0.000E+00  1.06682E+03  1.364E+00  7.455E+00  6.709E-01  1.682E+00
   1    5    8     3     5    4.5579E-01  4.5579E-01   0.0000E+00  0.000E+00  0.000E+00  0.000E+00  1.06362E+03  0.000E+00  6.655E+00  4.991E-01  1.582E+00
   1    6    8     3     6    0.0000E+00  0.0000E+00   0.0000E+00  0.000E+00  0.000E+00  0.000E+00  1.06055E+03  0.000E+00  6.145E+00  1.844E-01  1.000E+00
   1    5   10     4     1    1.0000E+01  9.0525E-01   9.0947E+00  0.000E+00  0.000E+00  0.000E+00  1.07835E+03  6.210E-01  1.000E+01  2.500E-01  1.207E+00
   1    5    9     4     2    9.0947E+00  1.7835E+00   7.3113E+00  0.000E+00  0.000E+00  0.000E+00  1.07148E+03  5.670E-01  1.000E+01  5.000E-01  1.189E+00
   1    6    8     4     3    7.3113E+00  1.2257E+00   6.0855E+00  0.000E+00  0.000E+00  0.000E+00  1.06368E+03  5.021E-01  1.000E+01  3.500E-01  1.167E+00
   1    6    8     5     1    6.0855E+00  1.4717E+00   4.6139E+00  0.000E+00  0.000E+00  0.000E+00  1.05854E+03  5.396E-01  1.039E+01  4.158E-01  1.180E+00
   1    7    7     5     2    4.6139E+00  1.4899E+00   3.1240E+00  0.000E+00  0.000E+00  0.000E+00  1.05398E+03  4.817E-01  8.558E+00  4.279E-01  1.161E+00
   1    8    7     5     3    3.1240E+00  8.2856E-01   2.2955E+00  0.000E+00  0.000E+00  0.000E+00  1.04968E+03  4.253E-01  6.911E+00  2.419E-01  1.142E+00
   1    8    6     5     4    2.2955E+00  4.9460E-01   1.8009E+00  0.000E+00  0.000E+00  0.000E+00  1.04664E+03  3.856E-01  5.844E+00  1.461E-01  1.129E+00
   1    9    6     6     1    1.8009E+00  1.8009E+00   0.0000E+00  0.000E+00  0.000E+00  0.000E+00  1.04278E+03  5.668E-02  1.200E+01  6.000E-01  1.019E+00
   1   10    7     6     2    0.0000E+00  0.0000E+00   0.0000E+00  0.000E+00  0.000E+00  0.000E+00  1.03818E+03  0.000E+00  1.200E+01  6.000E-01  1.000E+00
   1   11    7     6     3    0.0000E+00  0.0000E+00   0.0000E+00  0.000E+00  0.000E+00  0.000E+00  1.03364E+03  0.000E+00  1.200E+01  6.000E-01  1.000E+00
   1   12    7     6     4    0.0000E+00  0.0000E+00   0.0000E+00  0.000E+00  0.000E+00  0.000E+00  1.02909E+03  0.000E+00  1.200E+01  6.000E-01  1.000E+00
   1   13    7     6     5    0.0000E+00 -3.0583E-01   3.0583E-01  0.000E+00  0.000E+00  0.000E+00  1.02597E+03  5.736E-02  1.200E+01  2.400E-01 -4.248E-01
   1   14    9     7     1    1.5000E+02  3.4615E+00   1.4654E+02  0.000E+00  0.000E+00  0.000E+00  1.03986E+03  2.282E+00  5.527E+01  5.590E+00  2.064E-01
   1   13    8     7     2    1.4654E+02  7.0525E+00   1.3949E+02  0.000E+00  0.000E+00  0.000E+00  1.03475E+03  2.254E+00  5.514E+01  6.134E+00  3.832E-01
   1   13    7     7     3    1.3949E+02  1.3190E+01   1.2630E+02  0.000E+00  0.000E+00  0.000E+00  1.02962E+03  2.198E+00  5.489E+01  5.549E+00  7.923E-01
   1   13    6     8     1    1.2660E+02  1.2770E+01   1.1383E+02  0.000E+00  0.000E+00  0.000E+00  1.02447E+03  2.592E+00  3.759E+01  3.831E+00  1.111E+00
   1   13    5     8     2    1.1383E+02  1.1208E+01   1.0262E+02  0.000E+00  0.000E+00  0.000E+00  1.01812E+03  2.492E+00  3.614E+01  3.683E+00  1.015E+00
   1   13    4     8     3    1.0262E+02  7.7664E+00   9.4857E+01  0.000E+00  0.000E+00  0.000E+00  1.01178E+03  2.408E+00  3.492E+01  3.558E+00  7.276E-01
   1   13    3     8     4    9.4857E+01  3.9616E+00   9.0896E+01  0.000E+00  0.000E+00  0.000E+00  1.00548E+03  2.353E+00  3.412E+01  3.477E+00  3.797E-01
   1   13    2     8     5    9.0896E+01  8.7325E-01   9.0022E+01  0.000E+00  0.000E+00  0.000E+00  9.99205E+02  2.330E+00  3.379E+01  3.443E+00  8.454E-02
   1   13    1     8     6    9.0022E+01  7.9532E-01   8.9227E+01  0.000E+00  0.000E+00  0.000E+00  9.94197E+02  2.322E+00  3.367E+01  2.059E+00  1.288E-01



1
              HEAD IN LAYER   1 AT END OF TIME STEP  15 IN STRESS PERIOD    2
  ---------------------------------------------------------------------------

           1       2       3       4       5       6       7       8       9      10
 ...................................................................................
   1  1056.03 1033.12 6999.00 6999.00 6999.00 6999.00 6999.00 6999.00 6999.00 6999.00
   2  1035.23 1014.24  995.75 6999.00 6999.00  984.77  987.23  987.88 6999.00 6999.00
   3  6999.00  991.90  983.84  977.65  979.11  981.55  985.09  982.93 6999.00 6999.00
   4   970.06  972.16  972.03  968.94  968.02  966.88  970.09  980.30  974.88 6999.00
   5   961.78  959.33  961.52  962.97  963.25  963.88  964.11  966.60  971.35  979.37
   6   952.16  951.29  955.82  959.90  960.96  961.90  962.90  964.99  966.12  976.42
   7   946.80  947.22  953.95  959.69  961.31  962.50  963.50  962.74  962.86 6999.00
   8  6999.00  947.37  956.01  962.74  964.74  966.14  966.54  962.87  965.76 6999.00
   9  6999.00  955.08  962.97  969.24  971.14  972.74  972.76  970.59  975.02 6999.00
  10  6999.00  967.79  973.70  978.17  979.49  980.79  981.68  982.56  987.84  991.86
  11  6999.00  982.64  987.50  988.60  989.94  991.73  993.48  996.55 1001.14 6999.00
  12   994.15  995.01  999.00  999.40 1002.01 1005.27 1008.67 1015.92 1020.38 6999.00
  13   993.81  998.95 1004.34 1009.60 1015.07 1021.13 1027.24 1033.60 1034.56 6999.00
  14  6999.00 1002.04 1006.11 1010.24 1015.27 1020.93 1027.57 1034.47 1039.24 6999.00
  15  6999.00 6999.00 1008.62 1011.49 1015.42 1018.91 6999.00 6999.00 6999.00 6999.00
1
  VOLUMETRIC BUDGET FOR ENTIRE MODEL AT END OF TIME STEP   15, STRESS PERIOD   2
  ------------------------------------------------------------------------------

     CUMULATIVE VOLUMES      L**3       RATES FOR THIS TIME STEP      L**3/T
     ------------------                 ------------------------

           IN:                                      IN:
           ---                                      ---
             STORAGE = 30236110848.0000               STORAGE =       6.5968E-02
       CONSTANT HEAD =           0.0000         CONSTANT HEAD =           0.0000
               WELLS =           0.0000                 WELLS =           0.0000
                  ET =           0.0000                    ET =           0.0000
     HEAD DEP BOUNDS =   353276576.0000       HEAD DEP BOUNDS =           0.2187
            RECHARGE =  2907584768.0000              RECHARGE =           1.7937
      STREAM LEAKAGE =153995624448.0000        STREAM LEAKAGE =          96.0789

            TOTAL IN =187492597760.0000              TOTAL IN =          98.1573

          OUT:                                     OUT:
          ----                                     ----
             STORAGE =  3887288320.0000               STORAGE =          82.7406
       CONSTANT HEAD =           0.0000         CONSTANT HEAD =           0.0000
               WELLS =157788012544.0000                 WELLS =           0.0000
                  ET = 24617674752.0000                    ET =          14.8830
     HEAD DEP BOUNDS =   360821024.0000       HEAD DEP BOUNDS =           0.2208
            RECHARGE =           0.0000              RECHARGE =           0.0000
      STREAM LEAKAGE =   841772672.0000        STREAM LEAKAGE =           0.3058

           TOTAL OUT =187495563264.0000             TOTAL OUT =          98.1502

            IN - OUT =    -2965504.0000              IN - OUT =       7.1030E-03

 PERCENT DISCREPANCY =          -0.00     PERCENT DISCREPANCY =           0.01






         TIME SUMMARY AT END OF TIME STEP   15 IN STRESS PERIOD    2
                    SECONDS     MINUTES      HOURS       DAYS        YEARS
                    -----------------------------------------------------------
   TIME STEP LENGTH 5.14816E+06  85803.      1430.0      59.585     0.16314    
 STRESS PERIOD TIME 4.30731E+07 7.17885E+05  11965.      498.53      1.3649    
         TOTAL TIME 1.62095E+09 2.70159E+07 4.50265E+05  18761.      51.365    
1
 
 SOLVING FOR HEAD 
     7 ITERATIONS FOR TIME STEP  16 IN STRESS PERIOD    2

 MAXIMUM HEAD CHANGE FOR EACH ITERATION:

    HEAD CHANGE   HEAD CHANGE   HEAD CHANGE   HEAD CHANGE   HEAD CHANGE
  LAYER,ROW,COL LAYER,ROW,COL LAYER,ROW,COL LAYER,ROW,COL LAYER,ROW,COL
 ----------------------------------------------------------------------
      1.849        0.6304        0.1918        0.4552E-01    0.9768E-02
  (  1,  8,  3) (  1,  7,  5) (  1,  7,  5) (  1,  7,  5) (  1,  7,  5)
     0.1605E-02    0.6852E-03
  (  1,  7,  5) (  1,  7,  5)


 NO OUTPUT CONTROL FOR STRESS PERIOD    2   TIME STEP   16
 
 SOLVING FOR HEAD 
     8 ITERATIONS FOR TIME STEP  17 IN STRESS PERIOD    2

 MAXIMUM HEAD CHANGE FOR EACH ITERATION:

    HEAD CHANGE   HEAD CHANGE   HEAD CHANGE   HEAD CHANGE   HEAD CHANGE
  LAYER,ROW,COL LAYER,ROW,COL LAYER,ROW,COL LAYER,ROW,COL LAYER,ROW,COL
 ----------------------------------------------------------------------
      1.866        0.6731        0.2140        0.5184E-01    0.1120E-01
  (  1,  8,  3) (  1,  7,  5) (  1,  7,  5) (  1,  7,  5) (  1,  7,  5)
     0.1798E-02    0.8131E-03    0.2522E-03
  (  1,  7,  5) (  1,  7,  5) (  1,  7,  5)


 NO OUTPUT CONTROL FOR STRESS PERIOD    2   TIME STEP   17
 
 SOLVING FOR HEAD 
     8 ITERATIONS FOR TIME STEP  18 IN STRESS PERIOD    2

 MAXIMUM HEAD CHANGE FOR EACH ITERATION:

    HEAD CHANGE   HEAD CHANGE   HEAD CHANGE   HEAD CHANGE   HEAD CHANGE
  LAYER,ROW,COL LAYER,ROW,COL LAYER,ROW,COL LAYER,ROW,COL LAYER,ROW,COL
 ----------------------------------------------------------------------
      1.880        0.7189        0.2393        0.5928E-01    0.1290E-01
  (  1,  8,  3) (  1,  7,  5) (  1,  7,  5) (  1,  7,  5) (  1,  7,  5)
     0.2020E-02    0.9684E-03    0.3146E-03
  (  1,  7,  5) (  1,  7,  5) (  1,  7,  5)


 NO OUTPUT CONTROL FOR STRESS PERIOD    2   TIME STEP   18
 
 SOLVING FOR HEAD 
     8 ITERATIONS FOR TIME STEP  19 IN STRESS PERIOD    2

 MAXIMUM HEAD CHANGE FOR EACH ITERATION:

    HEAD CHANGE   HEAD CHANGE   HEAD CHANGE   HEAD CHANGE   HEAD CHANGE
  LAYER,ROW,COL LAYER,ROW,COL LAYER,ROW,COL LAYER,ROW,COL LAYER,ROW,COL
 ----------------------------------------------------------------------
      2.023        0.7672        0.2679        0.6802E-01    0.1492E-01
  (  1,  8,  2) (  1,  7,  5) (  1,  7,  5) (  1,  7,  5) (  1,  7,  5)
     0.2350E-02    0.1157E-02    0.3943E-03
  (  1,  7,  8) (  1,  7,  5) (  1,  7,  5)


 NO OUTPUT CONTROL FOR STRESS PERIOD    2   TIME STEP   19
 
 SOLVING FOR HEAD 
     8 ITERATIONS FOR TIME STEP  20 IN STRESS PERIOD    2

 MAXIMUM HEAD CHANGE FOR EACH ITERATION:

    HEAD CHANGE   HEAD CHANGE   HEAD CHANGE   HEAD CHANGE   HEAD CHANGE
  LAYER,ROW,COL LAYER,ROW,COL LAYER,ROW,COL LAYER,ROW,COL LAYER,ROW,COL
 ----------------------------------------------------------------------
      2.178        0.8174        0.3000        0.7823E-01    0.1731E-01
  (  1,  8,  2) (  1,  7,  5) (  1,  7,  5) (  1,  7,  5) (  1,  7,  5)
     0.2795E-02    0.1384E-02    0.4961E-03
  (  1,  7,  8) (  1,  7,  5) (  1,  7,  5)


 OUTPUT CONTROL FOR STRESS PERIOD    2   TIME STEP   20
    PRINT BUDGET
    PRINT HEAD FOR ALL LAYERS
    SAVE BUDGET
 UBUDSV SAVING "              ET" ON UNIT 59 AT TIME STEP 20, STRESS PERIOD    2

  HEAD DEP BOUNDS   PERIOD    2   STEP  20
 BOUNDARY      1   LAYER   1   ROW    13   COL     1   RATE   -0.225433    
 BOUNDARY      2   LAYER   1   ROW    14   COL     9   RATE    0.218405    



 STREAM LISTING     PERIOD      2   STEP       20

 LAYER ROW COL. STREAM  RCH.  FLOW INTO     FLOW TO   FLOW OUT OF   OVRLND.     DIRECT     STREAM       STREAM     STREAM     STREAM   STREAMBED  STREAMBED
                SEG.NO.  NO.  STRM. RCH.    AQUIFER    STRM. RCH.    RUNOFF     PRECIP       ET          HEAD       DEPTH      WIDTH   CONDCTNC.   GRADIENT

   1    1    1     1     1    2.5000E+01  2.4011E+00   2.2599E+01  0.000E+00  0.000E+00  0.000E+00  1.09421E+03  1.162E+00  1.282E+01  5.769E-01  1.387E+00
   1    2    2     1     2    2.2599E+01  3.5108E+00   1.9088E+01  0.000E+00  0.000E+00  0.000E+00  1.08917E+03  1.114E+00  1.219E+01  8.533E-01  1.371E+00
   1    3    3     1     3    1.9088E+01  2.7530E+00   1.6335E+01  0.000E+00  0.000E+00  0.000E+00  1.08348E+03  1.062E+00  1.130E+01  6.778E-01  1.354E+00
   1    3    4     1     4    1.6335E+01  2.3306E+00   1.4004E+01  0.000E+00  0.000E+00  0.000E+00  1.07842E+03  1.015E+00  1.046E+01  5.804E-01  1.338E+00
   1    4    5     2     1    4.0044E+00  2.5883E+00   1.4161E+00  0.000E+00  0.000E+00  0.000E+00  1.07225E+03  3.184E-01  1.200E+01  7.800E-01  1.106E+00
   1    5    6     2     2    1.4161E+00  1.4161E+00   0.0000E+00  0.000E+00  0.000E+00  0.000E+00  1.06656E+03  4.853E-02  1.200E+01  6.000E-01  1.016E+00
   1    6    6     2     3    0.0000E+00  0.0000E+00   0.0000E+00  0.000E+00  0.000E+00  0.000E+00  1.06179E+03  0.000E+00  1.200E+01  6.000E-01  1.000E+00
   1    7    6     2     4    0.0000E+00  0.0000E+00   0.0000E+00  0.000E+00  0.000E+00  0.000E+00  1.05708E+03  0.000E+00  1.200E+01  6.000E-01  1.000E+00
   1    8    6     2     5    0.0000E+00  0.0000E+00   0.0000E+00  0.000E+00  0.000E+00  0.000E+00  1.05236E+03  0.000E+00  1.200E+01  6.000E-01  1.000E+00
   1    3    5     3     1    1.0000E+01  2.8252E+00   7.1748E+00  0.000E+00  0.000E+00  0.000E+00  1.07555E+03  1.909E+00  9.636E+00  7.227E-01  1.955E+00
   1    3    6     3     2    7.1748E+00  2.4905E+00   4.6843E+00  0.000E+00  0.000E+00  0.000E+00  1.07264E+03  1.727E+00  8.909E+00  6.682E-01  1.864E+00
   1    3    7     3     3    4.6843E+00  1.9718E+00   2.7125E+00  0.000E+00  0.000E+00  0.000E+00  1.06987E+03  1.555E+00  8.218E+00  5.547E-01  1.777E+00
   1    4    8     3     4    2.7125E+00  2.2567E+00   4.5579E-01  0.000E+00  0.000E+00  0.000E+00  1.06682E+03  1.364E+00  7.455E+00  6.709E-01  1.682E+00
   1    5    8     3     5    4.5579E-01  4.5579E-01   0.0000E+00  0.000E+00  0.000E+00  0.000E+00  1.06362E+03  0.000E+00  6.655E+00  4.991E-01  1.582E+00
   1    6    8     3     6    0.0000E+00  0.0000E+00   0.0000E+00  0.000E+00  0.000E+00  0.000E+00  1.06055E+03  0.000E+00  6.145E+00  1.844E-01  1.000E+00
   1    5   10     4     1    1.0000E+01  9.0525E-01   9.0947E+00  0.000E+00  0.000E+00  0.000E+00  1.07835E+03  6.210E-01  1.000E+01  2.500E-01  1.207E+00
   1    5    9     4     2    9.0947E+00  1.7835E+00   7.3113E+00  0.000E+00  0.000E+00  0.000E+00  1.07148E+03  5.670E-01  1.000E+01  5.000E-01  1.189E+00
   1    6    8     4     3    7.3113E+00  1.2257E+00   6.0855E+00  0.000E+00  0.000E+00  0.000E+00  1.06368E+03  5.021E-01  1.000E+01  3.500E-01  1.167E+00
   1    6    8     5     1    6.0855E+00  1.4717E+00   4.6139E+00  0.000E+00  0.000E+00  0.000E+00  1.05854E+03  5.396E-01  1.039E+01  4.158E-01  1.180E+00
   1    7    7     5     2    4.6139E+00  1.4899E+00   3.1240E+00  0.000E+00  0.000E+00  0.000E+00  1.05398E+03  4.817E-01  8.558E+00  4.279E-01  1.161E+00
   1    8    7     5     3    3.1240E+00  8.2856E-01   2.2955E+00  0.000E+00  0.000E+00  0.000E+00  1.04968E+03  4.253E-01  6.911E+00  2.419E-01  1.142E+00
   1    8    6     5     4    2.2955E+00  4.9460E-01   1.8009E+00  0.000E+00  0.000E+00  0.000E+00  1.04664E+03  3.856E-01  5.844E+00  1.461E-01  1.129E+00
   1    9    6     6     1    1.8009E+00  1.8009E+00   0.0000E+00  0.000E+00  0.000E+00  0.000E+00  1.04278E+03  5.668E-02  1.200E+01  6.000E-01  1.019E+00
   1   10    7     6     2    0.0000E+00  0.0000E+00   0.0000E+00  0.000E+00  0.000E+00  0.000E+00  1.03818E+03  0.000E+00  1.200E+01  6.000E-01  1.000E+00
   1   11    7     6     3    0.0000E+00  0.0000E+00   0.0000E+00  0.000E+00  0.000E+00  0.000E+00  1.03364E+03  0.000E+00  1.200E+01  6.000E-01  1.000E+00
   1   12    7     6     4    0.0000E+00  0.0000E+00   0.0000E+00  0.000E+00  0.000E+00  0.000E+00  1.02909E+03  0.000E+00  1.200E+01  6.000E-01  1.000E+00
   1   13    7     6     5    0.0000E+00 -3.7709E-01   3.7709E-01  0.000E+00  0.000E+00  0.000E+00  1.02597E+03  6.505E-02  1.200E+01  2.400E-01 -5.237E-01
   1   14    9     7     1    1.5000E+02  3.4123E+00   1.4659E+02  0.000E+00  0.000E+00  0.000E+00  1.03986E+03  2.282E+00  5.527E+01  5.590E+00  2.035E-01
   1   13    8     7     2    1.4659E+02  6.6215E+00   1.3997E+02  0.000E+00  0.000E+00  0.000E+00  1.03476E+03  2.255E+00  5.515E+01  6.135E+00  3.598E-01
   1   13    7     7     3    1.3997E+02  1.1548E+01   1.2842E+02  0.000E+00  0.000E+00  0.000E+00  1.02962E+03  2.206E+00  5.493E+01  5.553E+00  6.932E-01
   1   13    6     8     1    1.2880E+02  1.0884E+01   1.1791E+02  0.000E+00  0.000E+00  0.000E+00  1.02449E+03  2.618E+00  3.796E+01  3.868E+00  9.380E-01
   1   13    5     8     2    1.1791E+02  9.1109E+00   1.0880E+02  0.000E+00  0.000E+00  0.000E+00  1.01816E+03  2.536E+00  3.677E+01  3.747E+00  8.105E-01
   1   13    4     8     3    1.0880E+02  5.9825E+00   1.0282E+02  0.000E+00  0.000E+00  0.000E+00  1.01185E+03  2.471E+00  3.583E+01  3.652E+00  5.461E-01
   1   13    3     8     4    1.0282E+02  2.8143E+00   1.0000E+02  0.000E+00  0.000E+00  0.000E+00  1.00556E+03  2.432E+00  3.527E+01  3.594E+00  2.610E-01
   1   13    2     8     5    1.0000E+02  5.8415E-01   9.9420E+01  0.000E+00  0.000E+00  0.000E+00  9.99292E+02  2.417E+00  3.504E+01  3.571E+00  5.452E-02
   1   13    1     8     6    9.9420E+01  7.5523E-01   9.8665E+01  0.000E+00  0.000E+00  0.000E+00  9.94286E+02  2.411E+00  3.496E+01  2.137E+00  1.178E-01



1
              HEAD IN LAYER   1 AT END OF TIME STEP  20 IN STRESS PERIOD    2
  ---------------------------------------------------------------------------

           1       2       3       4       5       6       7       8       9      10
 ...................................................................................
   1  1055.99 1033.54 6999.00 6999.00 6999.00 6999.00 6999.00 6999.00 6999.00 6999.00
   2  1035.40 1016.25  999.79 6999.00 6999.00  986.64  988.39  988.22 6999.00 6999.00
   3  6999.00  995.83  990.35  985.62  987.57  989.00  990.54  986.09 6999.00 6999.00
   4   971.29  977.37  980.07  978.47  978.02  976.79  978.50  986.23  976.85 6999.00
   5   963.63  966.76  971.52  973.84  974.18  974.49  974.07  975.32  977.60  981.70
   6   954.42  960.78  967.52  971.81  972.70  973.22  973.56  974.73  972.67  976.60
   7   949.20  958.31  966.79  972.18  973.48  974.24  974.67  973.23  965.04 6999.00
   8  6999.00  959.47  969.20  975.08  976.67  977.70  977.75  972.96  967.36 6999.00
   9  6999.00  966.15  974.96  980.42  981.96  983.27  983.01  979.34  977.21 6999.00
  10  6999.00  976.39  983.19  987.31  988.50  989.59  990.18  989.49  990.82  992.42
  11  6999.00  987.95  993.42  995.12  996.50  998.18  999.66 1001.46 1003.67 6999.00
  12   994.95  997.06 1001.68 1002.93 1005.70 1008.89 1012.02 1018.18 1021.56 6999.00
  13   993.93  999.13 1004.77 1010.21 1015.73 1021.68 1027.55 1033.68 1034.70 6999.00
  14  6999.00 1002.25 1006.51 1010.77 1015.82 1021.38 1027.86 1034.56 1039.25 6999.00
  15  6999.00 6999.00 1008.81 1011.73 1015.69 1019.14 6999.00 6999.00 6999.00 6999.00
1
  VOLUMETRIC BUDGET FOR ENTIRE MODEL AT END OF TIME STEP   20, STRESS PERIOD   2
  ------------------------------------------------------------------------------

     CUMULATIVE VOLUMES      L**3       RATES FOR THIS TIME STEP      L**3/T
     ------------------                 ------------------------

           IN:                                      IN:
           ---                                      ---
             STORAGE = 30236489728.0000               STORAGE =           0.0000
       CONSTANT HEAD =           0.0000         CONSTANT HEAD =           0.0000
               WELLS =           0.0000                 WELLS =           0.0000
                  ET =           0.0000                    ET =           0.0000
     HEAD DEP BOUNDS =   360832480.0000       HEAD DEP BOUNDS =           0.2184
            RECHARGE =  2969600512.0000              RECHARGE =           1.7937
      STREAM LEAKAGE =157114236928.0000        STREAM LEAKAGE =          86.7122

            TOTAL IN =190681153536.0000              TOTAL IN =          88.7243

          OUT:                                     OUT:
          ----                                     ----
             STORAGE =  6531207168.0000               STORAGE =          72.7711
       CONSTANT HEAD =           0.0000         CONSTANT HEAD =           0.0000
               WELLS =157788012544.0000                 WELLS =           0.0000
                  ET = 25142327296.0000                    ET =          15.3464
     HEAD DEP BOUNDS =   368554848.0000       HEAD DEP BOUNDS =           0.2254
            RECHARGE =           0.0000              RECHARGE =           0.0000
      STREAM LEAKAGE =   853886784.0000        STREAM LEAKAGE =           0.3771

           TOTAL OUT =190683987968.0000             TOTAL OUT =          88.7201

            IN - OUT =    -2834432.0000              IN - OUT =       4.2496E-03

 PERCENT DISCREPANCY =          -0.00     PERCENT DISCREPANCY =           0.00






         TIME SUMMARY AT END OF TIME STEP   20 IN STRESS PERIOD    2
                    SECONDS     MINUTES      HOURS       DAYS        YEARS
                    -----------------------------------------------------------
   TIME STEP LENGTH 8.29117E+06 1.38186E+05  2303.1      95.963     0.26273    
 STRESS PERIOD TIME 7.76462E+07 1.29410E+06  21568.      898.68      2.4605    
         TOTAL TIME 1.65553E+09 2.75921E+07 4.59868E+05  19161.      52.460    
1
 
 SOLVING FOR HEAD 
     8 ITERATIONS FOR TIME STEP  21 IN STRESS PERIOD    2

 MAXIMUM HEAD CHANGE FOR EACH ITERATION:

    HEAD CHANGE   HEAD CHANGE   HEAD CHANGE   HEAD CHANGE   HEAD CHANGE
  LAYER,ROW,COL LAYER,ROW,COL LAYER,ROW,COL LAYER,ROW,COL LAYER,ROW,COL
 ----------------------------------------------------------------------
      2.314        0.8693        0.3394        0.9009E-01    0.2021E-01
  (  1,  8,  2) (  1,  6,  5) (  1,  6,  5) (  1,  7,  5) (  1,  6,  5)
     0.3312E-02    0.1674E-02    0.6257E-03
  (  1,  7,  8) (  1,  6,  5) (  1,  7,  5)


 NO OUTPUT CONTROL FOR STRESS PERIOD    2   TIME STEP   21
 
 SOLVING FOR HEAD 
     8 ITERATIONS FOR TIME STEP  22 IN STRESS PERIOD    2

 MAXIMUM HEAD CHANGE FOR EACH ITERATION:

    HEAD CHANGE   HEAD CHANGE   HEAD CHANGE   HEAD CHANGE   HEAD CHANGE
  LAYER,ROW,COL LAYER,ROW,COL LAYER,ROW,COL LAYER,ROW,COL LAYER,ROW,COL
 ----------------------------------------------------------------------
      2.427        0.9303        0.3832        0.1038        0.2377E-01
  (  1,  8,  2) (  1,  6,  5) (  1,  6,  5) (  1,  7,  5) (  1,  6,  5)
     0.3902E-02    0.2024E-02    0.7898E-03
  (  1,  7,  8) (  1,  6,  5) (  1,  7,  5)


 NO OUTPUT CONTROL FOR STRESS PERIOD    2   TIME STEP   22
 
 SOLVING FOR HEAD 
     9 ITERATIONS FOR TIME STEP  23 IN STRESS PERIOD    2

 MAXIMUM HEAD CHANGE FOR EACH ITERATION:

    HEAD CHANGE   HEAD CHANGE   HEAD CHANGE   HEAD CHANGE   HEAD CHANGE
  LAYER,ROW,COL LAYER,ROW,COL LAYER,ROW,COL LAYER,ROW,COL LAYER,ROW,COL
 ----------------------------------------------------------------------
      2.514        0.9908        0.4313        0.1195        0.2796E-01
  (  1,  8,  2) (  1,  6,  5) (  1,  6,  5) (  1,  7,  5) (  1,  6,  5)
     0.4561E-02    0.2440E-02    0.9968E-03    0.6251E-03
  (  1,  7,  8) (  1,  6,  5) (  1,  7,  5) (  1, 13,  4)


 NO OUTPUT CONTROL FOR STRESS PERIOD    2   TIME STEP   23
 
 SOLVING FOR HEAD 
     9 ITERATIONS FOR TIME STEP  24 IN STRESS PERIOD    2

 MAXIMUM HEAD CHANGE FOR EACH ITERATION:

    HEAD CHANGE   HEAD CHANGE   HEAD CHANGE   HEAD CHANGE   HEAD CHANGE
  LAYER,ROW,COL LAYER,ROW,COL LAYER,ROW,COL LAYER,ROW,COL LAYER,ROW,COL
 ----------------------------------------------------------------------
      2.573         1.050        0.4835        0.1375        0.3287E-01
  (  1,  8,  2) (  1,  6,  5) (  1,  6,  5) (  1,  7,  5) (  1,  6,  5)
     0.5283E-02    0.2931E-02    0.1255E-02    0.3764E-03
  (  1,  7,  8) (  1,  6,  5) (  1,  7,  5) (  1,  6,  5)


 NO OUTPUT CONTROL FOR STRESS PERIOD    2   TIME STEP   24
 
 SOLVING FOR HEAD 
     9 ITERATIONS FOR TIME STEP  25 IN STRESS PERIOD    2

 MAXIMUM HEAD CHANGE FOR EACH ITERATION:

    HEAD CHANGE   HEAD CHANGE   HEAD CHANGE   HEAD CHANGE   HEAD CHANGE
  LAYER,ROW,COL LAYER,ROW,COL LAYER,ROW,COL LAYER,ROW,COL LAYER,ROW,COL
 ----------------------------------------------------------------------
      2.606         1.105        0.5395        0.1577        0.3859E-01
  (  1,  8,  2) (  1,  6,  5) (  1,  6,  5) (  1,  7,  5) (  1,  6,  5)
     0.6062E-02    0.3503E-02    0.1573E-02    0.4935E-03
  (  1,  7,  8) (  1,  6,  5) (  1,  7,  5) (  1,  6,  5)


 OUTPUT CONTROL FOR STRESS PERIOD    2   TIME STEP   25
    PRINT BUDGET
    PRINT HEAD FOR ALL LAYERS
    SAVE BUDGET
 UBUDSV SAVING "              ET" ON UNIT 59 AT TIME STEP 25, STRESS PERIOD    2

  HEAD DEP BOUNDS   PERIOD    2   STEP  25
 BOUNDARY      1   LAYER   1   ROW    13   COL     1   RATE   -0.230634    
 BOUNDARY      2   LAYER   1   ROW    14   COL     9   RATE    0.217791    



 STREAM LISTING     PERIOD      2   STEP       25

 LAYER ROW COL. STREAM  RCH.  FLOW INTO     FLOW TO   FLOW OUT OF   OVRLND.     DIRECT     STREAM       STREAM     STREAM     STREAM   STREAMBED  STREAMBED
                SEG.NO.  NO.  STRM. RCH.    AQUIFER    STRM. RCH.    RUNOFF     PRECIP       ET          HEAD       DEPTH      WIDTH   CONDCTNC.   GRADIENT

   1    1    1     1     1    2.5000E+01  2.4011E+00   2.2599E+01  0.000E+00  0.000E+00  0.000E+00  1.09421E+03  1.162E+00  1.282E+01  5.769E-01  1.387E+00
   1    2    2     1     2    2.2599E+01  3.5108E+00   1.9088E+01  0.000E+00  0.000E+00  0.000E+00  1.08917E+03  1.114E+00  1.219E+01  8.533E-01  1.371E+00
   1    3    3     1     3    1.9088E+01  2.7530E+00   1.6335E+01  0.000E+00  0.000E+00  0.000E+00  1.08348E+03  1.062E+00  1.130E+01  6.778E-01  1.354E+00
   1    3    4     1     4    1.6335E+01  2.3306E+00   1.4004E+01  0.000E+00  0.000E+00  0.000E+00  1.07842E+03  1.015E+00  1.046E+01  5.804E-01  1.338E+00
   1    4    5     2     1    4.0044E+00  2.5883E+00   1.4161E+00  0.000E+00  0.000E+00  0.000E+00  1.07225E+03  3.184E-01  1.200E+01  7.800E-01  1.106E+00
   1    5    6     2     2    1.4161E+00  1.4161E+00   0.0000E+00  0.000E+00  0.000E+00  0.000E+00  1.06656E+03  4.853E-02  1.200E+01  6.000E-01  1.016E+00
   1    6    6     2     3    0.0000E+00  0.0000E+00   0.0000E+00  0.000E+00  0.000E+00  0.000E+00  1.06179E+03  0.000E+00  1.200E+01  6.000E-01  1.000E+00
   1    7    6     2     4    0.0000E+00  0.0000E+00   0.0000E+00  0.000E+00  0.000E+00  0.000E+00  1.05708E+03  0.000E+00  1.200E+01  6.000E-01  1.000E+00
   1    8    6     2     5    0.0000E+00  0.0000E+00   0.0000E+00  0.000E+00  0.000E+00  0.000E+00  1.05236E+03  0.000E+00  1.200E+01  6.000E-01  1.000E+00
   1    3    5     3     1    1.0000E+01  2.8252E+00   7.1748E+00  0.000E+00  0.000E+00  0.000E+00  1.07555E+03  1.909E+00  9.636E+00  7.227E-01  1.955E+00
   1    3    6     3     2    7.1748E+00  2.4905E+00   4.6843E+00  0.000E+00  0.000E+00  0.000E+00  1.07264E+03  1.727E+00  8.909E+00  6.682E-01  1.864E+00
   1    3    7     3     3    4.6843E+00  1.9718E+00   2.7125E+00  0.000E+00  0.000E+00  0.000E+00  1.06987E+03  1.555E+00  8.218E+00  5.547E-01  1.777E+00
   1    4    8     3     4    2.7125E+00  2.2567E+00   4.5579E-01  0.000E+00  0.000E+00  0.000E+00  1.06682E+03  1.364E+00  7.455E+00  6.709E-01  1.682E+00
   1    5    8     3     5    4.5579E-01  4.5579E-01   0.0000E+00  0.000E+00  0.000E+00  0.000E+00  1.06362E+03  0.000E+00  6.655E+00  4.991E-01  1.582E+00
   1    6    8     3     6    0.0000E+00  0.0000E+00   0.0000E+00  0.000E+00  0.000E+00  0.000E+00  1.06055E+03  0.000E+00  6.145E+00  1.844E-01  1.000E+00
   1    5   10     4     1    1.0000E+01  9.0525E-01   9.0947E+00  0.000E+00  0.000E+00  0.000E+00  1.07835E+03  6.210E-01  1.000E+01  2.500E-01  1.207E+00
   1    5    9     4     2    9.0947E+00  1.7835E+00   7.3113E+00  0.000E+00  0.000E+00  0.000E+00  1.07148E+03  5.670E-01  1.000E+01  5.000E-01  1.189E+00
   1    6    8     4     3    7.3113E+00  1.2257E+00   6.0855E+00  0.000E+00  0.000E+00  0.000E+00  1.06368E+03  5.021E-01  1.000E+01  3.500E-01  1.167E+00
   1    6    8     5     1    6.0855E+00  1.4717E+00   4.6139E+00  0.000E+00  0.000E+00  0.000E+00  1.05854E+03  5.396E-01  1.039E+01  4.158E-01  1.180E+00
   1    7    7     5     2    4.6139E+00  1.4899E+00   3.1240E+00  0.000E+00  0.000E+00  0.000E+00  1.05398E+03  4.817E-01  8.558E+00  4.279E-01  1.161E+00
   1    8    7     5     3    3.1240E+00  8.2856E-01   2.2955E+00  0.000E+00  0.000E+00  0.000E+00  1.04968E+03  4.253E-01  6.911E+00  2.419E-01  1.142E+00
   1    8    6     5     4    2.2955E+00  4.9460E-01   1.8009E+00  0.000E+00  0.000E+00  0.000E+00  1.04664E+03  3.856E-01  5.844E+00  1.461E-01  1.129E+00
   1    9    6     6     1    1.8009E+00  1.8009E+00   0.0000E+00  0.000E+00  0.000E+00  0.000E+00  1.04278E+03  5.668E-02  1.200E+01  6.000E-01  1.019E+00
   1   10    7     6     2    0.0000E+00  0.0000E+00   0.0000E+00  0.000E+00  0.000E+00  0.000E+00  1.03818E+03  0.000E+00  1.200E+01  6.000E-01  1.000E+00
   1   11    7     6     3    0.0000E+00  0.0000E+00   0.0000E+00  0.000E+00  0.000E+00  0.000E+00  1.03364E+03  0.000E+00  1.200E+01  6.000E-01  1.000E+00
   1   12    7     6     4    0.0000E+00  0.0000E+00   0.0000E+00  0.000E+00  0.000E+00  0.000E+00  1.02909E+03  0.000E+00  1.200E+01  6.000E-01  1.000E+00
   1   13    7     6     5    0.0000E+00 -4.5691E-01   4.5691E-01  0.000E+00  0.000E+00  0.000E+00  1.02598E+03  7.299E-02  1.200E+01  2.400E-01 -6.346E-01
   1   14    9     7     1    1.5000E+02  3.3233E+00   1.4668E+02  0.000E+00  0.000E+00  0.000E+00  1.03986E+03  2.282E+00  5.527E+01  5.590E+00  1.982E-01
   1   13    8     7     2    1.4668E+02  6.0605E+00   1.4062E+02  0.000E+00  0.000E+00  0.000E+00  1.03476E+03  2.257E+00  5.516E+01  6.136E+00  3.292E-01
   1   13    7     7     3    1.4062E+02  9.7124E+00   1.3090E+02  0.000E+00  0.000E+00  0.000E+00  1.02963E+03  2.214E+00  5.496E+01  5.557E+00  5.826E-01
   1   13    6     8     1    1.3136E+02  8.8273E+00   1.2253E+02  0.000E+00  0.000E+00  0.000E+00  1.02452E+03  2.646E+00  3.837E+01  3.910E+00  7.526E-01
   1   13    5     8     2    1.2253E+02  6.8521E+00   1.1568E+02  0.000E+00  0.000E+00  0.000E+00  1.01821E+03  2.583E+00  3.746E+01  3.817E+00  5.983E-01
   1   13    4     8     3    1.1568E+02  4.0595E+00   1.1162E+02  0.000E+00  0.000E+00  0.000E+00  1.01191E+03  2.538E+00  3.681E+01  3.751E+00  3.608E-01
   1   13    3     8     4    1.1162E+02  1.5507E+00   1.1007E+02  0.000E+00  0.000E+00  0.000E+00  1.00564E+03  2.515E+00  3.646E+01  3.716E+00  1.391E-01
   1   13    2     8     5    1.1007E+02  2.2464E-01   1.0985E+02  0.000E+00  0.000E+00  0.000E+00  9.99382E+02  2.507E+00  3.635E+01  3.705E+00  2.021E-02
   1   13    1     8     6    1.0985E+02  6.8573E-01   1.0916E+02  0.000E+00  0.000E+00  0.000E+00  9.94378E+02  2.503E+00  3.630E+01  2.219E+00  1.030E-01



1
              HEAD IN LAYER   1 AT END OF TIME STEP  25 IN STRESS PERIOD    2
  ---------------------------------------------------------------------------

           1       2       3       4       5       6       7       8       9      10
 ...................................................................................
   1  1056.59 1036.08 6999.00 6999.00 6999.00 6999.00 6999.00 6999.00 6999.00 6999.00
   2  1037.24 1022.37 1008.89 6999.00 6999.00  993.06  993.46  991.53 6999.00 6999.00
   3  6999.00 1004.92 1001.98  998.50 1000.84 1001.37 1001.27  994.84 6999.00 6999.00
   4   976.77  988.08  992.98  992.44  992.34  991.13  991.94  997.58  984.76 6999.00
   5   970.20  979.44  985.75  988.49  988.91  989.14  988.47  989.04  989.56  989.61
   6   962.00  975.07  982.59  986.72  987.53  987.96  988.12  988.94  985.13  978.65
   7   957.38  973.87  982.17  986.86  987.95  988.61  989.00  987.63  973.40 6999.00
   8  6999.00  976.42  984.19  988.86  990.15  991.06  991.16  986.77  973.50 6999.00
   9  6999.00  981.50  988.24  992.47  993.76  994.98  994.71  991.08  983.71 6999.00
  10  6999.00  988.18  993.62  997.01  998.13  999.18  999.68  998.46  996.76  994.96
  11  6999.00  995.15  999.90 1001.98 1003.46 1005.13 1006.51 1007.75 1008.46 6999.00
  12   996.26  999.69 1004.55 1006.64 1009.61 1012.79 1015.73 1021.02 1023.70 6999.00
  13   994.07  999.32 1005.22 1010.83 1016.41 1022.26 1027.89 1033.77 1034.97 6999.00
  14  6999.00 1002.60 1007.03 1011.40 1016.48 1021.95 1028.22 1034.69 1039.27 6999.00
  15  6999.00 6999.00 1009.26 1012.25 1016.24 1019.65 6999.00 6999.00 6999.00 6999.00
1
  VOLUMETRIC BUDGET FOR ENTIRE MODEL AT END OF TIME STEP   25, STRESS PERIOD   2
  ------------------------------------------------------------------------------

     CUMULATIVE VOLUMES      L**3       RATES FOR THIS TIME STEP      L**3/T
     ------------------                 ------------------------

           IN:                                      IN:
           ---                                      ---
             STORAGE = 30236489728.0000               STORAGE =           0.0000
       CONSTANT HEAD =           0.0000         CONSTANT HEAD =           0.0000
               WELLS =           0.0000                 WELLS =           0.0000
                  ET =           0.0000                    ET =           0.0000
     HEAD DEP BOUNDS =   372972544.0000       HEAD DEP BOUNDS =           0.2178
            RECHARGE =  3069476864.0000              RECHARGE =           1.7937
      STREAM LEAKAGE =161576124416.0000        STREAM LEAKAGE =          76.2962

            TOTAL IN =195255058432.0000              TOTAL IN =          78.3078

          OUT:                                     OUT:
          ----                                     ----
             STORAGE = 10196444160.0000               STORAGE =          61.7780
       CONSTANT HEAD =           0.0000         CONSTANT HEAD =           0.0000
               WELLS =157788012544.0000                 WELLS =           0.0000
                  ET = 26014283776.0000                    ET =          15.8405
     HEAD DEP BOUNDS =   381290336.0000       HEAD DEP BOUNDS =           0.2306
            RECHARGE =           0.0000              RECHARGE =           0.0000
      STREAM LEAKAGE =   877690944.0000        STREAM LEAKAGE =           0.4569

           TOTAL OUT =195257729024.0000             TOTAL OUT =          78.3060

            IN - OUT =    -2670592.0000              IN - OUT =       1.7776E-03

 PERCENT DISCREPANCY =          -0.00     PERCENT DISCREPANCY =           0.00






         TIME SUMMARY AT END OF TIME STEP   25 IN STRESS PERIOD    2
                    SECONDS     MINUTES      HOURS       DAYS        YEARS
                    -----------------------------------------------------------
   TIME STEP LENGTH 1.33530E+07 2.22550E+05  3709.2      154.55     0.42313    
 STRESS PERIOD TIME 1.33326E+08 2.22211E+06  37035.      1543.1      4.2249    
         TOTAL TIME 1.71121E+09 2.85201E+07 4.75335E+05  19806.      54.225    
1
 
 SOLVING FOR HEAD 
     9 ITERATIONS FOR TIME STEP  26 IN STRESS PERIOD    2

 MAXIMUM HEAD CHANGE FOR EACH ITERATION:

    HEAD CHANGE   HEAD CHANGE   HEAD CHANGE   HEAD CHANGE   HEAD CHANGE
  LAYER,ROW,COL LAYER,ROW,COL LAYER,ROW,COL LAYER,ROW,COL LAYER,ROW,COL
 ----------------------------------------------------------------------
      2.613         1.157        0.5987        0.1805        0.4522E-01
  (  1,  8,  2) (  1,  6,  5) (  1,  6,  5) (  1,  7,  5) (  1,  6,  5)
     0.6908E-02    0.4164E-02    0.1965E-02    0.6450E-03
  (  1,  7,  8) (  1,  6,  5) (  1,  7,  5) (  1,  6,  5)


 NO OUTPUT CONTROL FOR STRESS PERIOD    2   TIME STEP   26
 
 SOLVING FOR HEAD 
    10 ITERATIONS FOR TIME STEP  27 IN STRESS PERIOD    2

 MAXIMUM HEAD CHANGE FOR EACH ITERATION:

    HEAD CHANGE   HEAD CHANGE   HEAD CHANGE   HEAD CHANGE   HEAD CHANGE
  LAYER,ROW,COL LAYER,ROW,COL LAYER,ROW,COL LAYER,ROW,COL LAYER,ROW,COL
 ----------------------------------------------------------------------
      2.600         1.203        0.6607        0.2060        0.5289E-01
  (  1,  8,  2) (  1,  6,  5) (  1,  6,  5) (  1,  6,  5) (  1,  6,  5)
     0.7841E-02    0.4925E-02    0.2444E-02    0.8409E-03    0.1963E-03
  (  1,  7,  8) (  1,  6,  5) (  1,  7,  5) (  1,  6,  5) (  1,  7,  5)


 NO OUTPUT CONTROL FOR STRESS PERIOD    2   TIME STEP   27
 
 SOLVING FOR HEAD 
    10 ITERATIONS FOR TIME STEP  28 IN STRESS PERIOD    2

 MAXIMUM HEAD CHANGE FOR EACH ITERATION:

    HEAD CHANGE   HEAD CHANGE   HEAD CHANGE   HEAD CHANGE   HEAD CHANGE
  LAYER,ROW,COL LAYER,ROW,COL LAYER,ROW,COL LAYER,ROW,COL LAYER,ROW,COL
 ----------------------------------------------------------------------
      2.908         1.243        0.7263        0.2346        0.6172E-01
  (  1,  7,  1) (  1,  6,  5) (  1,  5,  5) (  1,  6,  5) (  1,  6,  5)
     0.9705E-02    0.5814E-02    0.3015E-02    0.1091E-02    0.2553E-03
  (  1,  2,  3) (  1,  5,  5) (  1,  7,  5) (  1,  6,  5) (  1,  7,  5)


 NO OUTPUT CONTROL FOR STRESS PERIOD    2   TIME STEP   28
 
 SOLVING FOR HEAD 
    10 ITERATIONS FOR TIME STEP  29 IN STRESS PERIOD    2

 MAXIMUM HEAD CHANGE FOR EACH ITERATION:

    HEAD CHANGE   HEAD CHANGE   HEAD CHANGE   HEAD CHANGE   HEAD CHANGE
  LAYER,ROW,COL LAYER,ROW,COL LAYER,ROW,COL LAYER,ROW,COL LAYER,ROW,COL
 ----------------------------------------------------------------------
      3.304         1.277        0.7983        0.2659        0.7350E-01
  (  1,  7,  1) (  1,  5,  5) (  1,  5,  5) (  1,  6,  5) (  1,  3,  4)
     0.1198E-01    0.7116E-02    0.3703E-02    0.1412E-02    0.3325E-03
  (  1,  2,  3) (  1,  3,  4) (  1,  7,  5) (  1,  6,  5) (  1,  7,  5)


 NO OUTPUT CONTROL FOR STRESS PERIOD    2   TIME STEP   29
 
 SOLVING FOR HEAD 
    10 ITERATIONS FOR TIME STEP  30 IN STRESS PERIOD    2

 MAXIMUM HEAD CHANGE FOR EACH ITERATION:

    HEAD CHANGE   HEAD CHANGE   HEAD CHANGE   HEAD CHANGE   HEAD CHANGE
  LAYER,ROW,COL LAYER,ROW,COL LAYER,ROW,COL LAYER,ROW,COL LAYER,ROW,COL
 ----------------------------------------------------------------------
      3.666         1.314        0.8720        0.3004        0.9049E-01
  (  1,  7,  1) (  1,  6,  8) (  1,  5,  5) (  1,  6,  5) (  1,  2,  3)
     0.1465E-01    0.8669E-02    0.4528E-02    0.1823E-02    0.4328E-03
  (  1,  2,  3) (  1,  3,  4) (  1,  7,  5) (  1,  6,  5) (  1,  7,  5)


 OUTPUT CONTROL FOR STRESS PERIOD    2   TIME STEP   30
    PRINT BUDGET
    PRINT HEAD FOR ALL LAYERS
    SAVE BUDGET
 UBUDSV SAVING "              ET" ON UNIT 59 AT TIME STEP 30, STRESS PERIOD    2

  HEAD DEP BOUNDS   PERIOD    2   STEP  30
 BOUNDARY      1   LAYER   1   ROW    13   COL     1   RATE   -0.235890    
 BOUNDARY      2   LAYER   1   ROW    14   COL     9   RATE    0.217104    



 STREAM LISTING     PERIOD      2   STEP       30

 LAYER ROW COL. STREAM  RCH.  FLOW INTO     FLOW TO   FLOW OUT OF   OVRLND.     DIRECT     STREAM       STREAM     STREAM     STREAM   STREAMBED  STREAMBED
                SEG.NO.  NO.  STRM. RCH.    AQUIFER    STRM. RCH.    RUNOFF     PRECIP       ET          HEAD       DEPTH      WIDTH   CONDCTNC.   GRADIENT

   1    1    1     1     1    2.5000E+01  2.4011E+00   2.2599E+01  0.000E+00  0.000E+00  0.000E+00  1.09421E+03  1.162E+00  1.282E+01  5.769E-01  1.387E+00
   1    2    2     1     2    2.2599E+01  3.5108E+00   1.9088E+01  0.000E+00  0.000E+00  0.000E+00  1.08917E+03  1.114E+00  1.219E+01  8.533E-01  1.371E+00
   1    3    3     1     3    1.9088E+01  2.7530E+00   1.6335E+01  0.000E+00  0.000E+00  0.000E+00  1.08348E+03  1.062E+00  1.130E+01  6.778E-01  1.354E+00
   1    3    4     1     4    1.6335E+01  2.3306E+00   1.4004E+01  0.000E+00  0.000E+00  0.000E+00  1.07842E+03  1.015E+00  1.046E+01  5.804E-01  1.338E+00
   1    4    5     2     1    4.0044E+00  2.5883E+00   1.4161E+00  0.000E+00  0.000E+00  0.000E+00  1.07225E+03  3.184E-01  1.200E+01  7.800E-01  1.106E+00
   1    5    6     2     2    1.4161E+00  1.4161E+00   0.0000E+00  0.000E+00  0.000E+00  0.000E+00  1.06656E+03  4.853E-02  1.200E+01  6.000E-01  1.016E+00
   1    6    6     2     3    0.0000E+00  0.0000E+00   0.0000E+00  0.000E+00  0.000E+00  0.000E+00  1.06179E+03  0.000E+00  1.200E+01  6.000E-01  1.000E+00
   1    7    6     2     4    0.0000E+00  0.0000E+00   0.0000E+00  0.000E+00  0.000E+00  0.000E+00  1.05708E+03  0.000E+00  1.200E+01  6.000E-01  1.000E+00
   1    8    6     2     5    0.0000E+00  0.0000E+00   0.0000E+00  0.000E+00  0.000E+00  0.000E+00  1.05236E+03  0.000E+00  1.200E+01  6.000E-01  1.000E+00
   1    3    5     3     1    1.0000E+01  2.8252E+00   7.1748E+00  0.000E+00  0.000E+00  0.000E+00  1.07555E+03  1.909E+00  9.636E+00  7.227E-01  1.955E+00
   1    3    6     3     2    7.1748E+00  2.4905E+00   4.6843E+00  0.000E+00  0.000E+00  0.000E+00  1.07264E+03  1.727E+00  8.909E+00  6.682E-01  1.864E+00
   1    3    7     3     3    4.6843E+00  1.9718E+00   2.7125E+00  0.000E+00  0.000E+00  0.000E+00  1.06987E+03  1.555E+00  8.218E+00  5.547E-01  1.777E+00
   1    4    8     3     4    2.7125E+00  2.2567E+00   4.5579E-01  0.000E+00  0.000E+00  0.000E+00  1.06682E+03  1.364E+00  7.455E+00  6.709E-01  1.682E+00
   1    5    8     3     5    4.5579E-01  4.5579E-01   0.0000E+00  0.000E+00  0.000E+00  0.000E+00  1.06362E+03  0.000E+00  6.655E+00  4.991E-01  1.582E+00
   1    6    8     3     6    0.0000E+00  0.0000E+00   0.0000E+00  0.000E+00  0.000E+00  0.000E+00  1.06055E+03  0.000E+00  6.145E+00  1.844E-01  1.000E+00
   1    5   10     4     1    1.0000E+01  9.0525E-01   9.0947E+00  0.000E+00  0.000E+00  0.000E+00  1.07835E+03  6.210E-01  1.000E+01  2.500E-01  1.207E+00
   1    5    9     4     2    9.0947E+00  1.7835E+00   7.3113E+00  0.000E+00  0.000E+00  0.000E+00  1.07148E+03  5.670E-01  1.000E+01  5.000E-01  1.189E+00
   1    6    8     4     3    7.3113E+00  1.2257E+00   6.0855E+00  0.000E+00  0.000E+00  0.000E+00  1.06368E+03  5.021E-01  1.000E+01  3.500E-01  1.167E+00
   1    6    8     5     1    6.0855E+00  1.4717E+00   4.6139E+00  0.000E+00  0.000E+00  0.000E+00  1.05854E+03  5.396E-01  1.039E+01  4.158E-01  1.180E+00
   1    7    7     5     2    4.6139E+00  1.4899E+00   3.1240E+00  0.000E+00  0.000E+00  0.000E+00  1.05398E+03  4.817E-01  8.558E+00  4.279E-01  1.161E+00
   1    8    7     5     3    3.1240E+00  8.2856E-01   2.2955E+00  0.000E+00  0.000E+00  0.000E+00  1.04968E+03  4.253E-01  6.911E+00  2.419E-01  1.142E+00
   1    8    6     5     4    2.2955E+00  4.9460E-01   1.8009E+00  0.000E+00  0.000E+00  0.000E+00  1.04664E+03  3.856E-01  5.844E+00  1.461E-01  1.129E+00
   1    9    6     6     1    1.8009E+00  1.8009E+00   0.0000E+00  0.000E+00  0.000E+00  0.000E+00  1.04278E+03  5.668E-02  1.200E+01  6.000E-01  1.019E+00
   1   10    7     6     2    0.0000E+00  0.0000E+00   0.0000E+00  0.000E+00  0.000E+00  0.000E+00  1.03818E+03  0.000E+00  1.200E+01  6.000E-01  1.000E+00
   1   11    7     6     3    0.0000E+00  0.0000E+00   0.0000E+00  0.000E+00  0.000E+00  0.000E+00  1.03364E+03  0.000E+00  1.200E+01  6.000E-01  1.000E+00
   1   12    7     6     4    0.0000E+00  0.0000E+00   0.0000E+00  0.000E+00  0.000E+00  0.000E+00  1.02909E+03  0.000E+00  1.200E+01  6.000E-01  1.000E+00
   1   13    7     6     5    0.0000E+00 -5.3810E-01   5.3810E-01  0.000E+00  0.000E+00  0.000E+00  1.02599E+03  8.051E-02  1.200E+01  2.400E-01 -7.474E-01
   1   14    9     7     1    1.5000E+02  3.2237E+00   1.4678E+02  0.000E+00  0.000E+00  0.000E+00  1.03986E+03  2.283E+00  5.527E+01  5.591E+00  1.922E-01
   1   13    8     7     2    1.4678E+02  5.4510E+00   1.4133E+02  0.000E+00  0.000E+00  0.000E+00  1.03476E+03  2.260E+00  5.517E+01  6.137E+00  2.961E-01
   1   13    7     7     3    1.4133E+02  7.8473E+00   1.3348E+02  0.000E+00  0.000E+00  0.000E+00  1.02964E+03  2.223E+00  5.501E+01  5.561E+00  4.703E-01
   1   13    6     8     1    1.3402E+02  6.6657E+00   1.2735E+02  0.000E+00  0.000E+00  0.000E+00  1.02455E+03  2.675E+00  3.879E+01  3.952E+00  5.622E-01
   1   13    5     8     2    1.2735E+02  4.4534E+00   1.2290E+02  0.000E+00  0.000E+00  0.000E+00  1.01826E+03  2.632E+00  3.816E+01  3.889E+00  3.818E-01
   1   13    4     8     3    1.2290E+02  2.0076E+00   1.2089E+02  0.000E+00  0.000E+00  0.000E+00  1.01198E+03  2.606E+00  3.779E+01  3.851E+00  1.738E-01
   1   13    3     8     4    1.2089E+02  2.0205E-01   1.2069E+02  0.000E+00  0.000E+00  0.000E+00  1.00572E+03  2.597E+00  3.766E+01  3.837E+00  1.755E-02
   1   13    2     8     5    1.2069E+02 -1.6656E-01   1.2085E+02  0.000E+00  0.000E+00  0.000E+00  9.99472E+02  2.597E+00  3.766E+01  3.837E+00 -1.447E-02
   1   13    1     8     6    1.2085E+02  6.0406E-01   1.2025E+02  0.000E+00  0.000E+00  0.000E+00  9.94470E+02  2.595E+00  3.763E+01  2.301E+00  8.752E-02



1
              HEAD IN LAYER   1 AT END OF TIME STEP  30 IN STRESS PERIOD    2
  ---------------------------------------------------------------------------

           1       2       3       4       5       6       7       8       9      10
 ...................................................................................
   1  1060.08 1043.82 6999.00 6999.00 6999.00 6999.00 6999.00 6999.00 6999.00 6999.00
   2  1043.91 1034.93 1024.46 6999.00 6999.00 1008.50 1007.35 1003.58 6999.00 6999.00
   3  6999.00 1020.62 1019.30 1016.47 1018.86 1018.75 1017.80 1010.91 6999.00 6999.00
   4   991.90 1005.35 1011.06 1010.84 1010.81 1009.62 1010.10 1014.64 1003.55 6999.00
   5   986.74  997.77 1004.32 1006.89 1007.28 1007.48 1006.78 1007.22 1007.31 1005.92
   6   980.63  993.90 1001.08 1004.66 1005.35 1005.79 1006.03 1006.92 1002.97  990.00
   7   977.51  992.81 1000.04 1003.84 1004.74 1005.40 1005.99 1005.20  994.13 6999.00
   8  6999.00  995.32 1000.78 1004.23 1005.26 1006.14 1006.40 1003.00  990.47 6999.00
   9  6999.00  998.06 1002.50 1005.55 1006.64 1007.82 1007.60 1004.53  996.80 6999.00
  10  6999.00 1000.84 1004.63 1007.33 1008.43 1009.46 1009.91 1008.67 1005.72 1001.76
  11  6999.00 1002.92 1006.68 1009.20 1010.80 1012.47 1013.73 1014.76 1014.95 6999.00
  12   997.74 1002.51 1007.54 1010.51 1013.69 1016.83 1019.45 1024.11 1026.47 6999.00
  13   994.21  999.52 1005.67 1011.46 1017.11 1022.86 1028.23 1033.87 1035.28 6999.00
  14  6999.00 1003.03 1007.60 1012.09 1017.20 1022.57 1028.59 1034.82 1039.29 6999.00
  15  6999.00 6999.00 1009.96 1013.03 1017.03 1020.41 6999.00 6999.00 6999.00 6999.00
1
  VOLUMETRIC BUDGET FOR ENTIRE MODEL AT END OF TIME STEP   30, STRESS PERIOD   2
  ------------------------------------------------------------------------------

     CUMULATIVE VOLUMES      L**3       RATES FOR THIS TIME STEP      L**3/T
     ------------------                 ------------------------

           IN:                                      IN:
           ---                                      ---
             STORAGE = 30236489728.0000               STORAGE =           0.0000
       CONSTANT HEAD =           0.0000         CONSTANT HEAD =           0.0000
               WELLS =           0.0000                 WELLS =           0.0000
                  ET =           0.0000                    ET =           0.0000
     HEAD DEP BOUNDS =   392463392.0000       HEAD DEP BOUNDS =           0.2171
            RECHARGE =  3230329088.0000              RECHARGE =           1.7937
      STREAM LEAKAGE =167795277824.0000        STREAM LEAKAGE =          65.4548

            TOTAL IN =201654566912.0000              TOTAL IN =          67.4656

          OUT:                                     OUT:
          ----                                     ----
             STORAGE = 15055026176.0000               STORAGE =          49.7496
       CONSTANT HEAD =           0.0000         CONSTANT HEAD =           0.0000
               WELLS =157788012544.0000                 WELLS =           0.0000
                  ET = 27483023360.0000                    ET =          16.7741
     HEAD DEP BOUNDS =   402274368.0000       HEAD DEP BOUNDS =           0.2359
            RECHARGE =           0.0000              RECHARGE =           0.0000
      STREAM LEAKAGE =   928794816.0000        STREAM LEAKAGE =           0.7047

           TOTAL OUT =201657139200.0000             TOTAL OUT =          67.4643

            IN - OUT =    -2572288.0000              IN - OUT =       1.3504E-03

 PERCENT DISCREPANCY =          -0.00     PERCENT DISCREPANCY =           0.00






         TIME SUMMARY AT END OF TIME STEP   30 IN STRESS PERIOD    2
                    SECONDS     MINUTES      HOURS       DAYS        YEARS
                    -----------------------------------------------------------
   TIME STEP LENGTH 2.15052E+07 3.58420E+05  5973.7      248.90     0.68146    
 STRESS PERIOD TIME 2.23000E+08 3.71667E+06  61944.      2581.0      7.0664    
         TOTAL TIME 1.80088E+09 3.00147E+07 5.00244E+05  20844.      57.066    
1
 
 SOLVING FOR HEAD 
    10 ITERATIONS FOR TIME STEP  31 IN STRESS PERIOD    2

 MAXIMUM HEAD CHANGE FOR EACH ITERATION:

    HEAD CHANGE   HEAD CHANGE   HEAD CHANGE   HEAD CHANGE   HEAD CHANGE
  LAYER,ROW,COL LAYER,ROW,COL LAYER,ROW,COL LAYER,ROW,COL LAYER,ROW,COL
 ----------------------------------------------------------------------
      3.966         1.360        0.9469        0.3382        0.1106    
  (  1,  7,  1) (  1,  6,  8) (  1,  5,  5) (  1,  6,  5) (  1,  2,  3)
     0.1773E-01    0.1048E-01    0.5520E-02    0.2349E-02    0.5617E-03
  (  1,  2,  3) (  1,  3,  4) (  1,  7,  5) (  1,  6,  5) (  1,  7,  5)


 NO OUTPUT CONTROL FOR STRESS PERIOD    2   TIME STEP   31
 
 SOLVING FOR HEAD 
    10 ITERATIONS FOR TIME STEP  32 IN STRESS PERIOD    2

 MAXIMUM HEAD CHANGE FOR EACH ITERATION:

    HEAD CHANGE   HEAD CHANGE   HEAD CHANGE   HEAD CHANGE   HEAD CHANGE
  LAYER,ROW,COL LAYER,ROW,COL LAYER,ROW,COL LAYER,ROW,COL LAYER,ROW,COL
 ----------------------------------------------------------------------
      4.181         1.400         1.022        0.3794        0.1341    
  (  1,  7,  1) (  1,  6,  8) (  1,  5,  5) (  1,  6,  5) (  1,  2,  3)
     0.2128E-01    0.1259E-01    0.6698E-02    0.3012E-02    0.7275E-03
  (  1,  2,  3) (  1,  3,  4) (  1,  7,  5) (  1,  6,  5) (  1,  7,  5)


 NO OUTPUT CONTROL FOR STRESS PERIOD    2   TIME STEP   32
 
 SOLVING FOR HEAD 
    11 ITERATIONS FOR TIME STEP  33 IN STRESS PERIOD    2

 MAXIMUM HEAD CHANGE FOR EACH ITERATION:

    HEAD CHANGE   HEAD CHANGE   HEAD CHANGE   HEAD CHANGE   HEAD CHANGE
  LAYER,ROW,COL LAYER,ROW,COL LAYER,ROW,COL LAYER,ROW,COL LAYER,ROW,COL
 ----------------------------------------------------------------------
      4.299         1.433         1.096        0.4236        0.1614    
  (  1,  7,  1) (  1,  6,  8) (  1,  5,  5) (  1,  6,  5) (  1,  2,  3)
     0.2531E-01    0.1504E-01    0.8127E-02    0.3916E-02    0.9496E-03
  (  1,  2,  3) (  1,  3,  4) (  1,  7,  5) (  1,  3,  4) (  1,  7,  5)
     0.4407E-03
  (  1,  2,  3)


 OUTPUT CONTROL FOR STRESS PERIOD    2   TIME STEP   33
    PRINT BUDGET
    PRINT HEAD FOR ALL LAYERS
    SAVE BUDGET
 UBUDSV SAVING "              ET" ON UNIT 59 AT TIME STEP 33, STRESS PERIOD    2

  HEAD DEP BOUNDS   PERIOD    2   STEP  33
 BOUNDARY      1   LAYER   1   ROW    13   COL     1   RATE   -0.238904    
 BOUNDARY      2   LAYER   1   ROW    14   COL     9   RATE    0.216683    



 STREAM LISTING     PERIOD      2   STEP       33

 LAYER ROW COL. STREAM  RCH.  FLOW INTO     FLOW TO   FLOW OUT OF   OVRLND.     DIRECT     STREAM       STREAM     STREAM     STREAM   STREAMBED  STREAMBED
                SEG.NO.  NO.  STRM. RCH.    AQUIFER    STRM. RCH.    RUNOFF     PRECIP       ET          HEAD       DEPTH      WIDTH   CONDCTNC.   GRADIENT

   1    1    1     1     1    2.5000E+01  2.4011E+00   2.2599E+01  0.000E+00  0.000E+00  0.000E+00  1.09421E+03  1.162E+00  1.282E+01  5.769E-01  1.387E+00
   1    2    2     1     2    2.2599E+01  3.5108E+00   1.9088E+01  0.000E+00  0.000E+00  0.000E+00  1.08917E+03  1.114E+00  1.219E+01  8.533E-01  1.371E+00
   1    3    3     1     3    1.9088E+01  2.7530E+00   1.6335E+01  0.000E+00  0.000E+00  0.000E+00  1.08348E+03  1.062E+00  1.130E+01  6.778E-01  1.354E+00
   1    3    4     1     4    1.6335E+01  2.3306E+00   1.4004E+01  0.000E+00  0.000E+00  0.000E+00  1.07842E+03  1.015E+00  1.046E+01  5.804E-01  1.338E+00
   1    4    5     2     1    4.0044E+00  2.5883E+00   1.4161E+00  0.000E+00  0.000E+00  0.000E+00  1.07225E+03  3.184E-01  1.200E+01  7.800E-01  1.106E+00
   1    5    6     2     2    1.4161E+00  1.4161E+00   0.0000E+00  0.000E+00  0.000E+00  0.000E+00  1.06656E+03  4.853E-02  1.200E+01  6.000E-01  1.016E+00
   1    6    6     2     3    0.0000E+00  0.0000E+00   0.0000E+00  0.000E+00  0.000E+00  0.000E+00  1.06179E+03  0.000E+00  1.200E+01  6.000E-01  1.000E+00
   1    7    6     2     4    0.0000E+00  0.0000E+00   0.0000E+00  0.000E+00  0.000E+00  0.000E+00  1.05708E+03  0.000E+00  1.200E+01  6.000E-01  1.000E+00
   1    8    6     2     5    0.0000E+00  0.0000E+00   0.0000E+00  0.000E+00  0.000E+00  0.000E+00  1.05236E+03  0.000E+00  1.200E+01  6.000E-01  1.000E+00
   1    3    5     3     1    1.0000E+01  2.8252E+00   7.1748E+00  0.000E+00  0.000E+00  0.000E+00  1.07555E+03  1.909E+00  9.636E+00  7.227E-01  1.955E+00
   1    3    6     3     2    7.1748E+00  2.4905E+00   4.6843E+00  0.000E+00  0.000E+00  0.000E+00  1.07264E+03  1.727E+00  8.909E+00  6.682E-01  1.864E+00
   1    3    7     3     3    4.6843E+00  1.9718E+00   2.7125E+00  0.000E+00  0.000E+00  0.000E+00  1.06987E+03  1.555E+00  8.218E+00  5.547E-01  1.777E+00
   1    4    8     3     4    2.7125E+00  2.2567E+00   4.5579E-01  0.000E+00  0.000E+00  0.000E+00  1.06682E+03  1.364E+00  7.455E+00  6.709E-01  1.682E+00
   1    5    8     3     5    4.5579E-01  4.5579E-01   0.0000E+00  0.000E+00  0.000E+00  0.000E+00  1.06362E+03  0.000E+00  6.655E+00  4.991E-01  1.582E+00
   1    6    8     3     6    0.0000E+00  0.0000E+00   0.0000E+00  0.000E+00  0.000E+00  0.000E+00  1.06055E+03  0.000E+00  6.145E+00  1.844E-01  1.000E+00
   1    5   10     4     1    1.0000E+01  9.0525E-01   9.0947E+00  0.000E+00  0.000E+00  0.000E+00  1.07835E+03  6.210E-01  1.000E+01  2.500E-01  1.207E+00
   1    5    9     4     2    9.0947E+00  1.7835E+00   7.3113E+00  0.000E+00  0.000E+00  0.000E+00  1.07148E+03  5.670E-01  1.000E+01  5.000E-01  1.189E+00
   1    6    8     4     3    7.3113E+00  1.2257E+00   6.0855E+00  0.000E+00  0.000E+00  0.000E+00  1.06368E+03  5.021E-01  1.000E+01  3.500E-01  1.167E+00
   1    6    8     5     1    6.0855E+00  1.4717E+00   4.6139E+00  0.000E+00  0.000E+00  0.000E+00  1.05854E+03  5.396E-01  1.039E+01  4.158E-01  1.180E+00
   1    7    7     5     2    4.6139E+00  1.4899E+00   3.1240E+00  0.000E+00  0.000E+00  0.000E+00  1.05398E+03  4.817E-01  8.558E+00  4.279E-01  1.161E+00
   1    8    7     5     3    3.1240E+00  8.2856E-01   2.2955E+00  0.000E+00  0.000E+00  0.000E+00  1.04968E+03  4.253E-01  6.911E+00  2.419E-01  1.142E+00
   1    8    6     5     4    2.2955E+00  4.9460E-01   1.8009E+00  0.000E+00  0.000E+00  0.000E+00  1.04664E+03  3.856E-01  5.844E+00  1.461E-01  1.129E+00
   1    9    6     6     1    1.8009E+00  1.8009E+00   0.0000E+00  0.000E+00  0.000E+00  0.000E+00  1.04278E+03  5.668E-02  1.200E+01  6.000E-01  1.019E+00
   1   10    7     6     2    0.0000E+00  0.0000E+00   0.0000E+00  0.000E+00  0.000E+00  0.000E+00  1.03818E+03  0.000E+00  1.200E+01  6.000E-01  1.000E+00
   1   11    7     6     3    0.0000E+00  0.0000E+00   0.0000E+00  0.000E+00  0.000E+00  0.000E+00  1.03364E+03  0.000E+00  1.200E+01  6.000E-01  1.000E+00
   1   12    7     6     4    0.0000E+00  0.0000E+00   0.0000E+00  0.000E+00  0.000E+00  0.000E+00  1.02909E+03  0.000E+00  1.200E+01  6.000E-01  1.000E+00
   1   13    7     6     5    0.0000E+00 -5.8623E-01   5.8623E-01  0.000E+00  0.000E+00  0.000E+00  1.02599E+03  8.476E-02  1.200E+01  2.400E-01 -8.142E-01
   1   14    9     7     1    1.5000E+02  3.1628E+00   1.4684E+02  0.000E+00  0.000E+00  0.000E+00  1.03986E+03  2.283E+00  5.527E+01  5.591E+00  1.886E-01
   1   13    8     7     2    1.4684E+02  5.1045E+00   1.4173E+02  0.000E+00  0.000E+00  0.000E+00  1.03476E+03  2.261E+00  5.517E+01  6.138E+00  2.772E-01
   1   13    7     7     3    1.4173E+02  6.7407E+00   1.3499E+02  0.000E+00  0.000E+00  0.000E+00  1.02965E+03  2.229E+00  5.503E+01  5.564E+00  4.038E-01
   1   13    6     8     1    1.3558E+02  5.3650E+00   1.3021E+02  0.000E+00  0.000E+00  0.000E+00  1.02457E+03  2.692E+00  3.903E+01  3.977E+00  4.496E-01
   1   13    5     8     2    1.3021E+02  2.9697E+00   1.2724E+02  0.000E+00  0.000E+00  0.000E+00  1.01828E+03  2.660E+00  3.857E+01  3.930E+00  2.519E-01
   1   13    4     8     3    1.2724E+02  7.2818E-01   1.2652E+02  0.000E+00  0.000E+00  0.000E+00  1.01202E+03  2.645E+00  3.836E+01  3.909E+00  6.210E-02
   1   13    3     8     4    1.2652E+02 -6.3430E-01   1.2715E+02  0.000E+00  0.000E+00  0.000E+00  1.00577E+03  2.645E+00  3.835E+01  3.908E+00 -5.410E-02
   1   13    2     8     5    1.2715E+02 -4.0460E-01   1.2755E+02  0.000E+00  0.000E+00  0.000E+00  9.99524E+02  2.649E+00  3.841E+01  3.914E+00 -3.445E-02
   1   13    1     8     6    1.2755E+02  5.5562E-01   1.2700E+02  0.000E+00  0.000E+00  0.000E+00  9.94524E+02  2.649E+00  3.840E+01  2.348E+00  7.887E-02



1
              HEAD IN LAYER   1 AT END OF TIME STEP  33 IN STRESS PERIOD    2
  ---------------------------------------------------------------------------

           1       2       3       4       5       6       7       8       9      10
 ...................................................................................
   1  1065.55 1052.36 6999.00 6999.00 6999.00 6999.00 6999.00 6999.00 6999.00 6999.00
   2  1052.02 1045.87 1036.75 6999.00 6999.00 1022.83 1021.34 1017.42 6999.00 6999.00
   3  6999.00 1033.12 1032.10 1029.32 1031.60 1031.43 1030.52 1024.17 6999.00 6999.00
   4  1007.08 1018.91 1024.09 1023.65 1023.52 1022.35 1022.94 1027.39 1018.71 6999.00
   5  1002.66 1011.62 1017.31 1019.42 1019.71 1019.92 1019.30 1019.94 1020.41 1019.22
   6   997.73 1007.61 1013.66 1016.64 1017.23 1017.70 1018.10 1019.24 1016.19 1007.19
   7   995.28 1005.95 1011.84 1014.95 1015.74 1016.43 1017.28 1017.10 1010.03 6999.00
   8  6999.00 1007.09 1011.32 1014.10 1014.99 1015.89 1016.33 1014.01 1005.59 6999.00
   9  6999.00 1007.88 1011.30 1013.81 1014.81 1015.99 1015.85 1013.46 1007.62 6999.00
  10  6999.00 1008.24 1011.34 1013.77 1014.88 1015.92 1016.37 1015.33 1012.59 1008.65
  11  6999.00 1007.48 1010.79 1013.67 1015.35 1017.01 1018.20 1019.16 1019.39 6999.00
  12   998.61 1004.20 1009.36 1012.89 1016.18 1019.23 1021.64 1025.77 1028.23 6999.00
  13   994.29  999.63 1005.93 1011.83 1017.53 1023.22 1028.44 1033.93 1035.47 6999.00
  14  6999.00 1003.29 1007.95 1012.51 1017.64 1022.94 1028.82 1034.90 1039.30 6999.00
  15  6999.00 6999.00 1010.45 1013.55 1017.56 1020.90 6999.00 6999.00 6999.00 6999.00
1
  VOLUMETRIC BUDGET FOR ENTIRE MODEL AT END OF TIME STEP   33, STRESS PERIOD   2
  ------------------------------------------------------------------------------

     CUMULATIVE VOLUMES      L**3       RATES FOR THIS TIME STEP      L**3/T
     ------------------                 ------------------------

           IN:                                      IN:
           ---                                      ---
             STORAGE = 30236489728.0000               STORAGE =           0.0000
       CONSTANT HEAD =           0.0000         CONSTANT HEAD =           0.0000
               WELLS =           0.0000                 WELLS =           0.0000
                  ET =           0.0000                    ET =           0.0000
     HEAD DEP BOUNDS =   409439872.0000       HEAD DEP BOUNDS =           0.2167
            RECHARGE =  3370780416.0000              RECHARGE =           1.7937
      STREAM LEAKAGE =172600360960.0000        STREAM LEAKAGE =          59.6264

            TOTAL IN =206617067520.0000              TOTAL IN =          61.6368

          OUT:                                     OUT:
          ----                                     ----
             STORAGE = 18537027584.0000               STORAGE =          42.0071
       CONSTANT HEAD =           0.0000         CONSTANT HEAD =           0.0000
               WELLS =157788012544.0000                 WELLS =           0.0000
                  ET = 28845017088.0000                    ET =          17.7638
     HEAD DEP BOUNDS =   420908128.0000       HEAD DEP BOUNDS =           0.2389
            RECHARGE =           0.0000              RECHARGE =           0.0000
      STREAM LEAKAGE =  1028548096.0000        STREAM LEAKAGE =           1.6251

           TOTAL OUT =206619508736.0000             TOTAL OUT =          61.6349

            IN - OUT =    -2441216.0000              IN - OUT =       1.8921E-03

 PERCENT DISCREPANCY =          -0.00     PERCENT DISCREPANCY =           0.00






         TIME SUMMARY AT END OF TIME STEP   33 IN STRESS PERIOD    2
                    SECONDS     MINUTES      HOURS       DAYS        YEARS
                    -----------------------------------------------------------
   TIME STEP LENGTH 2.86234E+07 4.77056E+05  7950.9      331.29     0.90702    
 STRESS PERIOD TIME 3.01300E+08 5.02167E+06  83695.      3487.3      9.5476    
         TOTAL TIME 1.87918E+09 3.13197E+07 5.21995E+05  21750.      59.548    
1
 
 SOLVING FOR HEAD 
    11 ITERATIONS FOR TIME STEP  34 IN STRESS PERIOD    2

 MAXIMUM HEAD CHANGE FOR EACH ITERATION:

    HEAD CHANGE   HEAD CHANGE   HEAD CHANGE   HEAD CHANGE   HEAD CHANGE
  LAYER,ROW,COL LAYER,ROW,COL LAYER,ROW,COL LAYER,ROW,COL LAYER,ROW,COL
 ----------------------------------------------------------------------
      4.461         1.464         1.168        0.4708        0.1928    
  (  1,  6, 10) (  1,  6, 10) (  1,  5,  5) (  1,  6,  5) (  1,  2,  3)
     0.2984E-01    0.1783E-01    0.9811E-02    0.5094E-02    0.1233E-02
  (  1,  2,  3) (  1,  3,  4) (  1,  7,  5) (  1,  3,  4) (  1,  7,  5)
     0.5952E-03
  (  1,  2,  3)


 NO OUTPUT CONTROL FOR STRESS PERIOD    2   TIME STEP   34
 
 SOLVING FOR HEAD 
    11 ITERATIONS FOR TIME STEP  35 IN STRESS PERIOD    2

 MAXIMUM HEAD CHANGE FOR EACH ITERATION:

    HEAD CHANGE   HEAD CHANGE   HEAD CHANGE   HEAD CHANGE   HEAD CHANGE
  LAYER,ROW,COL LAYER,ROW,COL LAYER,ROW,COL LAYER,ROW,COL LAYER,ROW,COL
 ----------------------------------------------------------------------
      4.423         1.482         1.235        0.5195        0.2283    
  (  1,  6, 10) (  1,  6,  9) (  1,  5,  5) (  1,  6,  5) (  1,  2,  3)
     0.3483E-01    0.2094E-01    0.1173E-01    0.6557E-02    0.1595E-02
  (  1,  2,  3) (  1,  3,  4) (  1,  7,  6) (  1,  3,  4) (  1,  7,  5)
     0.7954E-03
  (  1,  2,  3)


 OUTPUT CONTROL FOR STRESS PERIOD    2   TIME STEP   35
    PRINT BUDGET
    PRINT HEAD FOR ALL LAYERS
    SAVE BUDGET
 UBUDSV SAVING "              ET" ON UNIT 59 AT TIME STEP 35, STRESS PERIOD    2

  HEAD DEP BOUNDS   PERIOD    2   STEP  35
 BOUNDARY      1   LAYER   1   ROW    13   COL     1   RATE   -0.240822    
 BOUNDARY      2   LAYER   1   ROW    14   COL     9   RATE    0.216406    



 STREAM LISTING     PERIOD      2   STEP       35

 LAYER ROW COL. STREAM  RCH.  FLOW INTO     FLOW TO   FLOW OUT OF   OVRLND.     DIRECT     STREAM       STREAM     STREAM     STREAM   STREAMBED  STREAMBED
                SEG.NO.  NO.  STRM. RCH.    AQUIFER    STRM. RCH.    RUNOFF     PRECIP       ET          HEAD       DEPTH      WIDTH   CONDCTNC.   GRADIENT

   1    1    1     1     1    2.5000E+01  2.4011E+00   2.2599E+01  0.000E+00  0.000E+00  0.000E+00  1.09421E+03  1.162E+00  1.282E+01  5.769E-01  1.387E+00
   1    2    2     1     2    2.2599E+01  3.5108E+00   1.9088E+01  0.000E+00  0.000E+00  0.000E+00  1.08917E+03  1.114E+00  1.219E+01  8.533E-01  1.371E+00
   1    3    3     1     3    1.9088E+01  2.7530E+00   1.6335E+01  0.000E+00  0.000E+00  0.000E+00  1.08348E+03  1.062E+00  1.130E+01  6.778E-01  1.354E+00
   1    3    4     1     4    1.6335E+01  2.3306E+00   1.4004E+01  0.000E+00  0.000E+00  0.000E+00  1.07842E+03  1.015E+00  1.046E+01  5.804E-01  1.338E+00
   1    4    5     2     1    4.0044E+00  2.5883E+00   1.4161E+00  0.000E+00  0.000E+00  0.000E+00  1.07225E+03  3.184E-01  1.200E+01  7.800E-01  1.106E+00
   1    5    6     2     2    1.4161E+00  1.4161E+00   0.0000E+00  0.000E+00  0.000E+00  0.000E+00  1.06656E+03  4.853E-02  1.200E+01  6.000E-01  1.016E+00
   1    6    6     2     3    0.0000E+00  0.0000E+00   0.0000E+00  0.000E+00  0.000E+00  0.000E+00  1.06179E+03  0.000E+00  1.200E+01  6.000E-01  1.000E+00
   1    7    6     2     4    0.0000E+00  0.0000E+00   0.0000E+00  0.000E+00  0.000E+00  0.000E+00  1.05708E+03  0.000E+00  1.200E+01  6.000E-01  1.000E+00
   1    8    6     2     5    0.0000E+00  0.0000E+00   0.0000E+00  0.000E+00  0.000E+00  0.000E+00  1.05236E+03  0.000E+00  1.200E+01  6.000E-01  1.000E+00
   1    3    5     3     1    1.0000E+01  2.8252E+00   7.1748E+00  0.000E+00  0.000E+00  0.000E+00  1.07555E+03  1.909E+00  9.636E+00  7.227E-01  1.955E+00
   1    3    6     3     2    7.1748E+00  2.4905E+00   4.6843E+00  0.000E+00  0.000E+00  0.000E+00  1.07264E+03  1.727E+00  8.909E+00  6.682E-01  1.864E+00
   1    3    7     3     3    4.6843E+00  1.9718E+00   2.7125E+00  0.000E+00  0.000E+00  0.000E+00  1.06987E+03  1.555E+00  8.218E+00  5.547E-01  1.777E+00
   1    4    8     3     4    2.7125E+00  2.2567E+00   4.5579E-01  0.000E+00  0.000E+00  0.000E+00  1.06682E+03  1.364E+00  7.455E+00  6.709E-01  1.682E+00
   1    5    8     3     5    4.5579E-01  4.5579E-01   0.0000E+00  0.000E+00  0.000E+00  0.000E+00  1.06362E+03  0.000E+00  6.655E+00  4.991E-01  1.582E+00
   1    6    8     3     6    0.0000E+00  0.0000E+00   0.0000E+00  0.000E+00  0.000E+00  0.000E+00  1.06055E+03  0.000E+00  6.145E+00  1.844E-01  1.000E+00
   1    5   10     4     1    1.0000E+01  9.0525E-01   9.0947E+00  0.000E+00  0.000E+00  0.000E+00  1.07835E+03  6.210E-01  1.000E+01  2.500E-01  1.207E+00
   1    5    9     4     2    9.0947E+00  1.7835E+00   7.3113E+00  0.000E+00  0.000E+00  0.000E+00  1.07148E+03  5.670E-01  1.000E+01  5.000E-01  1.189E+00
   1    6    8     4     3    7.3113E+00  1.2257E+00   6.0855E+00  0.000E+00  0.000E+00  0.000E+00  1.06368E+03  5.021E-01  1.000E+01  3.500E-01  1.167E+00
   1    6    8     5     1    6.0855E+00  1.4717E+00   4.6139E+00  0.000E+00  0.000E+00  0.000E+00  1.05854E+03  5.396E-01  1.039E+01  4.158E-01  1.180E+00
   1    7    7     5     2    4.6139E+00  1.4899E+00   3.1240E+00  0.000E+00  0.000E+00  0.000E+00  1.05398E+03  4.817E-01  8.558E+00  4.279E-01  1.161E+00
   1    8    7     5     3    3.1240E+00  8.2856E-01   2.2955E+00  0.000E+00  0.000E+00  0.000E+00  1.04968E+03  4.253E-01  6.911E+00  2.419E-01  1.142E+00
   1    8    6     5     4    2.2955E+00  4.9460E-01   1.8009E+00  0.000E+00  0.000E+00  0.000E+00  1.04664E+03  3.856E-01  5.844E+00  1.461E-01  1.129E+00
   1    9    6     6     1    1.8009E+00  1.8009E+00   0.0000E+00  0.000E+00  0.000E+00  0.000E+00  1.04278E+03  5.668E-02  1.200E+01  6.000E-01  1.019E+00
   1   10    7     6     2    0.0000E+00  0.0000E+00   0.0000E+00  0.000E+00  0.000E+00  0.000E+00  1.03818E+03  0.000E+00  1.200E+01  6.000E-01  1.000E+00
   1   11    7     6     3    0.0000E+00  0.0000E+00   0.0000E+00  0.000E+00  0.000E+00  0.000E+00  1.03364E+03  0.000E+00  1.200E+01  6.000E-01  1.000E+00
   1   12    7     6     4    0.0000E+00  0.0000E+00   0.0000E+00  0.000E+00  0.000E+00  0.000E+00  1.02909E+03  0.000E+00  1.200E+01  6.000E-01  1.000E+00
   1   13    7     6     5    0.0000E+00 -6.1794E-01   6.1794E-01  0.000E+00  0.000E+00  0.000E+00  1.02600E+03  8.748E-02  1.200E+01  2.400E-01 -8.583E-01
   1   14    9     7     1    1.5000E+02  3.1227E+00   1.4688E+02  0.000E+00  0.000E+00  0.000E+00  1.03986E+03  2.283E+00  5.527E+01  5.591E+00  1.862E-01
   1   13    8     7     2    1.4688E+02  4.8952E+00   1.4198E+02  0.000E+00  0.000E+00  0.000E+00  1.03476E+03  2.262E+00  5.518E+01  6.138E+00  2.658E-01
   1   13    7     7     3    1.4198E+02  6.0109E+00   1.3597E+02  0.000E+00  0.000E+00  0.000E+00  1.02965E+03  2.232E+00  5.504E+01  5.566E+00  3.600E-01
   1   13    6     8     1    1.3659E+02  4.5183E+00   1.3207E+02  0.000E+00  0.000E+00  0.000E+00  1.02458E+03  2.703E+00  3.919E+01  3.993E+00  3.771E-01
   1   13    5     8     2    1.3207E+02  1.9972E+00   1.3007E+02  0.000E+00  0.000E+00  0.000E+00  1.01830E+03  2.678E+00  3.883E+01  3.957E+00  1.683E-01
   1   13    4     8     3    1.3007E+02 -1.2942E-01   1.3020E+02  0.000E+00  0.000E+00  0.000E+00  1.01205E+03  2.671E+00  3.873E+01  3.946E+00 -1.093E-02
   1   13    3     8     4    1.3020E+02 -1.1959E+00   1.3140E+02  0.000E+00  0.000E+00  0.000E+00  1.00580E+03  2.676E+00  3.880E+01  3.954E+00 -1.008E-01
   1   13    2     8     5    1.3140E+02 -5.6253E-01   1.3196E+02  0.000E+00  0.000E+00  0.000E+00  9.99558E+02  2.683E+00  3.890E+01  3.964E+00 -4.731E-02
   1   13    1     8     6    1.3196E+02  5.2389E-01   1.3144E+02  0.000E+00  0.000E+00  0.000E+00  9.94558E+02  2.683E+00  3.890E+01  2.378E+00  7.342E-02



1
              HEAD IN LAYER   1 AT END OF TIME STEP  35 IN STRESS PERIOD    2
  ---------------------------------------------------------------------------

           1       2       3       4       5       6       7       8       9      10
 ...................................................................................
   1  1071.28 1059.91 6999.00 6999.00 6999.00 6999.00 6999.00 6999.00 6999.00 6999.00
   2  1059.50 1054.51 1046.00 6999.00 6999.00 1033.86 1032.51 1029.01 6999.00 6999.00
   3  6999.00 1042.56 1041.47 1038.59 1040.75 1040.69 1040.06 1034.33 6999.00 6999.00
   4  1019.07 1029.09 1033.54 1032.79 1032.54 1031.40 1032.18 1036.73 1029.39 6999.00
   5  1014.93 1021.90 1026.64 1028.28 1028.49 1028.70 1028.18 1029.05 1030.00 1029.36
   6  1010.38 1017.66 1022.58 1025.04 1025.55 1026.06 1026.60 1027.98 1025.97 1020.85
   7  1007.99 1015.39 1020.11 1022.69 1023.39 1024.13 1025.18 1025.48 1020.57 6999.00
   8  6999.00 1015.15 1018.57 1020.91 1021.72 1022.64 1023.22 1021.76 1015.84 6999.00
   9  6999.00 1014.41 1017.27 1019.46 1020.42 1021.61 1021.53 1019.71 1015.36 6999.00
  10  6999.00 1013.11 1015.85 1018.15 1019.28 1020.33 1020.79 1019.96 1017.69 1014.34
  11  6999.00 1010.48 1013.54 1016.68 1018.41 1020.06 1021.23 1022.13 1022.52 6999.00
  12   999.16 1005.31 1010.57 1014.47 1017.80 1020.78 1023.09 1026.70 1029.38 6999.00
  13   994.34  999.70 1006.10 1012.08 1017.80 1023.45 1028.57 1033.96 1035.59 6999.00
  14  6999.00 1003.45 1008.18 1012.78 1017.92 1023.18 1028.96 1034.95 1039.31 6999.00
  15  6999.00 6999.00 1010.77 1013.89 1017.90 1021.23 6999.00 6999.00 6999.00 6999.00
1
  VOLUMETRIC BUDGET FOR ENTIRE MODEL AT END OF TIME STEP   35, STRESS PERIOD   2
  ------------------------------------------------------------------------------

     CUMULATIVE VOLUMES      L**3       RATES FOR THIS TIME STEP      L**3/T
     ------------------                 ------------------------

           IN:                                      IN:
           ---                                      ---
             STORAGE = 30236489728.0000               STORAGE =           0.0000
       CONSTANT HEAD =           0.0000         CONSTANT HEAD =           0.0000
               WELLS =           0.0000                 WELLS =           0.0000
                  ET =           0.0000                    ET =           0.0000
     HEAD DEP BOUNDS =   423753088.0000       HEAD DEP BOUNDS =           0.2164
            RECHARGE =  3489383168.0000              RECHARGE =           1.7937
      STREAM LEAKAGE =176361029632.0000        STREAM LEAKAGE =          56.0682

            TOTAL IN =210510659584.0000              TOTAL IN =          58.0784

          OUT:                                     OUT:
          ----                                     ----
             STORAGE = 21043621888.0000               STORAGE =          36.6042
       CONSTANT HEAD =           0.0000         CONSTANT HEAD =           0.0000
               WELLS =157788012544.0000                 WELLS =           0.0000
                  ET = 30066077696.0000                    ET =          18.7242
     HEAD DEP BOUNDS =   436801440.0000       HEAD DEP BOUNDS =           0.2408
            RECHARGE =           0.0000              RECHARGE =           0.0000
      STREAM LEAKAGE =  1178366464.0000        STREAM LEAKAGE =           2.5058

           TOTAL OUT =210512887808.0000             TOTAL OUT =          58.0751

            IN - OUT =    -2228224.0000              IN - OUT =       3.2463E-03

 PERCENT DISCREPANCY =          -0.00     PERCENT DISCREPANCY =           0.01






         TIME SUMMARY AT END OF TIME STEP   35 IN STRESS PERIOD    2
                    SECONDS     MINUTES      HOURS       DAYS        YEARS
                    -----------------------------------------------------------
   TIME STEP LENGTH 3.46343E+07 5.77238E+05  9620.6      400.86      1.0975    
 STRESS PERIOD TIME 3.67420E+08 6.12367E+06 1.02061E+05  4252.6      11.643    
         TOTAL TIME 1.94530E+09 3.24217E+07 5.40361E+05  22515.      61.643    
1
 
 SOLVING FOR HEAD 
    12 ITERATIONS FOR TIME STEP  36 IN STRESS PERIOD    2

 MAXIMUM HEAD CHANGE FOR EACH ITERATION:

    HEAD CHANGE   HEAD CHANGE   HEAD CHANGE   HEAD CHANGE   HEAD CHANGE
  LAYER,ROW,COL LAYER,ROW,COL LAYER,ROW,COL LAYER,ROW,COL LAYER,ROW,COL
 ----------------------------------------------------------------------
      4.208         1.505         1.293        0.5686        0.2678    
  (  1,  6, 10) (  1,  6,  9) (  1,  5,  5) (  1,  6,  5) (  1,  2,  3)
     0.4020E-01    0.2441E-01    0.1404E-01    0.8388E-02    0.2069E-02
  (  1,  2,  3) (  1,  2,  3) (  1,  7,  6) (  1,  3,  4) (  1,  7,  5)
     0.1054E-02    0.3428E-03
  (  1,  2,  3) (  1,  4,  3)


 NO OUTPUT CONTROL FOR STRESS PERIOD    2   TIME STEP   36
 
 SOLVING FOR HEAD 
    12 ITERATIONS FOR TIME STEP  37 IN STRESS PERIOD    2

 MAXIMUM HEAD CHANGE FOR EACH ITERATION:

    HEAD CHANGE   HEAD CHANGE   HEAD CHANGE   HEAD CHANGE   HEAD CHANGE
  LAYER,ROW,COL LAYER,ROW,COL LAYER,ROW,COL LAYER,ROW,COL LAYER,ROW,COL
 ----------------------------------------------------------------------
      4.081         1.504         1.350        0.6162        0.3107    
  (  1,  2,  8) (  1,  4,  2) (  1,  3,  4) (  1,  6,  5) (  1,  2,  3)
     0.5008E-01    0.2860E-01    0.1664E-01    0.1061E-01    0.2684E-02
  (  1,  5, 10) (  1,  2,  3) (  1,  7,  6) (  1,  3,  4) (  1,  7,  8)
     0.1379E-02    0.4495E-03
  (  1,  2,  3) (  1,  4,  3)


 NO OUTPUT CONTROL FOR STRESS PERIOD    2   TIME STEP   37
 
 SOLVING FOR HEAD 
    12 ITERATIONS FOR TIME STEP  38 IN STRESS PERIOD    2

 MAXIMUM HEAD CHANGE FOR EACH ITERATION:

    HEAD CHANGE   HEAD CHANGE   HEAD CHANGE   HEAD CHANGE   HEAD CHANGE
  LAYER,ROW,COL LAYER,ROW,COL LAYER,ROW,COL LAYER,ROW,COL LAYER,ROW,COL
 ----------------------------------------------------------------------
      3.954         1.524         1.412        0.6595        0.3553    
  (  1,  2,  8) (  1,  4,  2) (  1,  3,  4) (  1,  6,  5) (  1,  2,  3)
     0.6704E-01    0.3300E-01    0.1950E-01    0.1321E-01    0.3459E-02
  (  1,  5, 10) (  1,  2,  3) (  1,  7,  6) (  1,  3,  4) (  1,  6,  9)
     0.1779E-02    0.5791E-03
  (  1,  2,  3) (  1,  4,  3)


 NO OUTPUT CONTROL FOR STRESS PERIOD    2   TIME STEP   38
 
 SOLVING FOR HEAD 
    12 ITERATIONS FOR TIME STEP  39 IN STRESS PERIOD    2

 MAXIMUM HEAD CHANGE FOR EACH ITERATION:

    HEAD CHANGE   HEAD CHANGE   HEAD CHANGE   HEAD CHANGE   HEAD CHANGE
  LAYER,ROW,COL LAYER,ROW,COL LAYER,ROW,COL LAYER,ROW,COL LAYER,ROW,COL
 ----------------------------------------------------------------------
      3.749         1.521         1.455        0.6921        0.3986    
  (  1,  2,  8) (  1,  4,  2) (  1,  3,  4) (  1,  6,  5) (  1,  2,  3)
     0.8468E-01    0.3733E-01    0.2224E-01    0.1601E-01    0.4354E-02
  (  1,  5, 10) (  1,  2,  3) (  1,  6,  7) (  1,  3,  4) (  1,  6,  9)
     0.2231E-02    0.7231E-03
  (  1,  2,  3) (  1,  4,  3)


 NO OUTPUT CONTROL FOR STRESS PERIOD    2   TIME STEP   39
 
 SOLVING FOR HEAD 
    14 ITERATIONS FOR TIME STEP  40 IN STRESS PERIOD    2

 MAXIMUM HEAD CHANGE FOR EACH ITERATION:

    HEAD CHANGE   HEAD CHANGE   HEAD CHANGE   HEAD CHANGE   HEAD CHANGE
  LAYER,ROW,COL LAYER,ROW,COL LAYER,ROW,COL LAYER,ROW,COL LAYER,ROW,COL
 ----------------------------------------------------------------------
      3.485         1.509         1.466        0.7213        0.4180    
  (  1,  2,  8) (  1,  4,  2) (  1,  3,  4) (  1,  6,  5) (  1,  2,  3)
     0.1053        0.4292E-01    0.2701E-01    0.2065E-01    0.5759E-02
  (  1,  5, 10) (  1,  2,  3) (  1,  6,  6) (  1,  3,  4) (  1,  6,  9)
     0.3097E-02    0.1009E-02    0.1096E-02    0.4135E-03
  (  1,  2,  3) (  1,  3,  2) (  1,  2,  3) (  1,  6,  5)


 OUTPUT CONTROL FOR STRESS PERIOD    2   TIME STEP   40
    PRINT BUDGET
    PRINT HEAD FOR ALL LAYERS
    SAVE BUDGET
 UBUDSV SAVING "              ET" ON UNIT 59 AT TIME STEP 40, STRESS PERIOD    2

  HEAD DEP BOUNDS   PERIOD    2   STEP  40
 BOUNDARY      1   LAYER   1   ROW    13   COL     1   RATE   -0.245222    
 BOUNDARY      2   LAYER   1   ROW    14   COL     9   RATE    0.215726    



 STREAM LISTING     PERIOD      2   STEP       40

 LAYER ROW COL. STREAM  RCH.  FLOW INTO     FLOW TO   FLOW OUT OF   OVRLND.     DIRECT     STREAM       STREAM     STREAM     STREAM   STREAMBED  STREAMBED
                SEG.NO.  NO.  STRM. RCH.    AQUIFER    STRM. RCH.    RUNOFF     PRECIP       ET          HEAD       DEPTH      WIDTH   CONDCTNC.   GRADIENT

   1    1    1     1     1    2.5000E+01  1.9905E+00   2.3009E+01  0.000E+00  0.000E+00  0.000E+00  1.09421E+03  1.165E+00  1.286E+01  5.788E-01  1.146E+00
   1    2    2     1     2    2.3009E+01  3.5416E+00   1.9468E+01  0.000E+00  0.000E+00  0.000E+00  1.08918E+03  1.121E+00  1.228E+01  8.594E-01  1.374E+00
   1    3    3     1     3    1.9468E+01  2.7853E+00   1.6683E+01  0.000E+00  0.000E+00  0.000E+00  1.08349E+03  1.068E+00  1.141E+01  6.846E-01  1.356E+00
   1    3    4     1     4    1.6683E+01  2.3597E+00   1.4323E+01  0.000E+00  0.000E+00  0.000E+00  1.07843E+03  1.022E+00  1.057E+01  5.867E-01  1.341E+00
   1    4    5     2     1    4.3229E+00  2.6050E+00   1.7179E+00  0.000E+00  0.000E+00  0.000E+00  1.07227E+03  3.398E-01  1.200E+01  7.800E-01  1.113E+00
   1    5    6     2     2    1.7179E+00  1.7179E+00   0.0000E+00  0.000E+00  0.000E+00  0.000E+00  1.06656E+03  5.449E-02  1.200E+01  6.000E-01  1.018E+00
   1    6    6     2     3    0.0000E+00  0.0000E+00   0.0000E+00  0.000E+00  0.000E+00  0.000E+00  1.06179E+03  0.000E+00  1.200E+01  6.000E-01  1.000E+00
   1    7    6     2     4    0.0000E+00  0.0000E+00   0.0000E+00  0.000E+00  0.000E+00  0.000E+00  1.05708E+03  0.000E+00  1.200E+01  6.000E-01  1.000E+00
   1    8    6     2     5    0.0000E+00  0.0000E+00   0.0000E+00  0.000E+00  0.000E+00  0.000E+00  1.05236E+03  0.000E+00  1.200E+01  6.000E-01  1.000E+00
   1    3    5     3     1    1.0000E+01  2.8252E+00   7.1748E+00  0.000E+00  0.000E+00  0.000E+00  1.07555E+03  1.909E+00  9.636E+00  7.227E-01  1.955E+00
   1    3    6     3     2    7.1748E+00  2.4905E+00   4.6843E+00  0.000E+00  0.000E+00  0.000E+00  1.07264E+03  1.727E+00  8.909E+00  6.682E-01  1.864E+00
   1    3    7     3     3    4.6843E+00  1.9718E+00   2.7125E+00  0.000E+00  0.000E+00  0.000E+00  1.06987E+03  1.555E+00  8.218E+00  5.547E-01  1.777E+00
   1    4    8     3     4    2.7125E+00  2.2567E+00   4.5579E-01  0.000E+00  0.000E+00  0.000E+00  1.06682E+03  1.364E+00  7.455E+00  6.709E-01  1.682E+00
   1    5    8     3     5    4.5579E-01  4.5579E-01   0.0000E+00  0.000E+00  0.000E+00  0.000E+00  1.06362E+03  0.000E+00  6.655E+00  4.991E-01  1.582E+00
   1    6    8     3     6    0.0000E+00  0.0000E+00   0.0000E+00  0.000E+00  0.000E+00  0.000E+00  1.06055E+03  0.000E+00  6.145E+00  1.844E-01  1.000E+00
   1    5   10     4     1    1.0000E+01  9.0525E-01   9.0947E+00  0.000E+00  0.000E+00  0.000E+00  1.07835E+03  6.210E-01  1.000E+01  2.500E-01  1.207E+00
   1    5    9     4     2    9.0947E+00  1.7835E+00   7.3113E+00  0.000E+00  0.000E+00  0.000E+00  1.07148E+03  5.670E-01  1.000E+01  5.000E-01  1.189E+00
   1    6    8     4     3    7.3113E+00  1.2257E+00   6.0855E+00  0.000E+00  0.000E+00  0.000E+00  1.06368E+03  5.021E-01  1.000E+01  3.500E-01  1.167E+00
   1    6    8     5     1    6.0855E+00  1.4717E+00   4.6139E+00  0.000E+00  0.000E+00  0.000E+00  1.05854E+03  5.396E-01  1.039E+01  4.158E-01  1.180E+00
   1    7    7     5     2    4.6139E+00  1.4899E+00   3.1240E+00  0.000E+00  0.000E+00  0.000E+00  1.05398E+03  4.817E-01  8.558E+00  4.279E-01  1.161E+00
   1    8    7     5     3    3.1240E+00  8.2856E-01   2.2955E+00  0.000E+00  0.000E+00  0.000E+00  1.04968E+03  4.253E-01  6.911E+00  2.419E-01  1.142E+00
   1    8    6     5     4    2.2955E+00  4.9460E-01   1.8009E+00  0.000E+00  0.000E+00  0.000E+00  1.04664E+03  3.856E-01  5.844E+00  1.461E-01  1.129E+00
   1    9    6     6     1    1.8009E+00  1.8009E+00   0.0000E+00  0.000E+00  0.000E+00  0.000E+00  1.04278E+03  5.668E-02  1.200E+01  6.000E-01  1.019E+00
   1   10    7     6     2    0.0000E+00  0.0000E+00   0.0000E+00  0.000E+00  0.000E+00  0.000E+00  1.03818E+03  0.000E+00  1.200E+01  6.000E-01  1.000E+00
   1   11    7     6     3    0.0000E+00  0.0000E+00   0.0000E+00  0.000E+00  0.000E+00  0.000E+00  1.03364E+03  0.000E+00  1.200E+01  6.000E-01  1.000E+00
   1   12    7     6     4    0.0000E+00  0.0000E+00   0.0000E+00  0.000E+00  0.000E+00  0.000E+00  1.02909E+03  0.000E+00  1.200E+01  6.000E-01  8.617E-01
   1   13    7     6     5    0.0000E+00 -6.9330E-01   6.9330E-01  0.000E+00  0.000E+00  0.000E+00  1.02600E+03  9.374E-02  1.200E+01  2.400E-01 -9.629E-01
   1   14    9     7     1    1.5000E+02  3.0241E+00   1.4698E+02  0.000E+00  0.000E+00  0.000E+00  1.03986E+03  2.283E+00  5.527E+01  5.591E+00  1.803E-01
   1   13    8     7     2    1.4698E+02  4.3837E+00   1.4259E+02  0.000E+00  0.000E+00  0.000E+00  1.03476E+03  2.263E+00  5.519E+01  6.139E+00  2.380E-01
   1   13    7     7     3    1.4259E+02  4.2764E+00   1.3832E+02  0.000E+00  0.000E+00  0.000E+00  1.02966E+03  2.240E+00  5.508E+01  5.570E+00  2.559E-01
   1   13    6     8     1    1.3901E+02  2.4925E+00   1.3652E+02  0.000E+00  0.000E+00  0.000E+00  1.02460E+03  2.728E+00  3.956E+01  4.031E+00  2.061E-01
   1   13    5     8     2    1.3652E+02 -3.0242E-01   1.3682E+02  0.000E+00  0.000E+00  0.000E+00  1.01835E+03  2.720E+00  3.944E+01  4.019E+00 -2.508E-02
   1   13    4     8     3    1.3682E+02 -2.1692E+00   1.3899E+02  0.000E+00  0.000E+00  0.000E+00  1.01210E+03  2.729E+00  3.958E+01  4.033E+00 -1.793E-01
   1   13    3     8     4    1.3899E+02 -2.5321E+00   1.4152E+02  0.000E+00  0.000E+00  0.000E+00  1.00587E+03  2.747E+00  3.983E+01  4.059E+00 -2.080E-01
   1   13    2     8     5    1.4152E+02 -9.4224E-01   1.4246E+02  0.000E+00  0.000E+00  0.000E+00  9.99634E+02  2.759E+00  4.001E+01  4.077E+00 -7.703E-02
   1   13    1     8     6    1.4246E+02  4.4813E-01   1.4201E+02  0.000E+00  0.000E+00  0.000E+00  9.94636E+02  2.761E+00  4.004E+01  2.448E+00  6.102E-02



1
              HEAD IN LAYER   1 AT END OF TIME STEP  40 IN STRESS PERIOD    2
  ---------------------------------------------------------------------------

           1       2       3       4       5       6       7       8       9      10
 ...................................................................................
   1  1090.77 1083.30 6999.00 6999.00 6999.00 6999.00 6999.00 6999.00 6999.00 6999.00
   2  1083.24 1079.22 1071.37 6999.00 6999.00 1062.44 1061.97 1059.96 6999.00 6999.00
   3  6999.00 1068.34 1066.52 1063.00 1064.64 1065.05 1065.42 1061.44 6999.00 6999.00
   4  1050.09 1056.13 1058.39 1056.52 1055.87 1054.76 1056.11 1061.00 1055.80 6999.00
   5  1045.84 1048.65 1050.76 1051.07 1051.02 1051.30 1050.91 1052.37 1054.62 1055.41
   6  1041.01 1043.36 1045.41 1046.46 1046.74 1047.34 1048.23 1050.22 1050.64 1051.12
   7  1037.88 1039.19 1041.02 1042.25 1042.73 1043.57 1045.12 1046.65 1045.00 6999.00
   8  6999.00 1035.11 1036.69 1037.99 1038.58 1039.55 1040.47 1040.97 1038.74 6999.00
   9  6999.00 1030.39 1032.05 1033.53 1034.36 1035.55 1035.58 1035.12 1033.64 6999.00
  10  6999.00 1024.93 1026.91 1028.95 1030.08 1031.08 1031.38 1031.36 1030.76 1029.88
  11  6999.00 1017.73 1020.22 1024.01 1025.83 1027.39 1028.25 1029.33 1030.43 6999.00
  12  1000.47 1007.96 1013.42 1018.19 1021.58 1024.47 1026.51 1028.97 1032.29 6999.00
  13   994.45  999.87 1006.50 1012.64 1018.42 1023.99 1028.89 1034.05 1035.90 6999.00
  14  6999.00 1003.80 1008.68 1013.39 1018.55 1023.73 1029.28 1035.05 1039.32 6999.00
  15  6999.00 6999.00 1011.48 1014.64 1018.66 1021.94 6999.00 6999.00 6999.00 6999.00
1
  VOLUMETRIC BUDGET FOR ENTIRE MODEL AT END OF TIME STEP   40, STRESS PERIOD   2
  ------------------------------------------------------------------------------

     CUMULATIVE VOLUMES      L**3       RATES FOR THIS TIME STEP      L**3/T
     ------------------                 ------------------------

           IN:                                      IN:
           ---                                      ---
             STORAGE = 30236489728.0000               STORAGE =           0.0000
       CONSTANT HEAD =           0.0000         CONSTANT HEAD =           0.0000
               WELLS =           0.0000                 WELLS =           0.0000
                  ET =           0.0000                    ET =           0.0000
     HEAD DEP BOUNDS =   473984512.0000       HEAD DEP BOUNDS =           0.2157
            RECHARGE =  3906592256.0000              RECHARGE =           1.7937
      STREAM LEAKAGE =188395601920.0000        STREAM LEAKAGE =          49.6248

            TOTAL IN =223012667392.0000              TOTAL IN =          51.6343

          OUT:                                     OUT:
          ----                                     ----
             STORAGE = 27459289088.0000               STORAGE =          22.2143
       CONSTANT HEAD =           0.0000         CONSTANT HEAD =           0.0000
               WELLS =157788012544.0000                 WELLS =           0.0000
                  ET = 34912620544.0000                    ET =          22.5340
     HEAD DEP BOUNDS =   493484672.0000       HEAD DEP BOUNDS =           0.2452
            RECHARGE =           0.0000              RECHARGE =           0.0000
      STREAM LEAKAGE =  2360794112.0000        STREAM LEAKAGE =           6.6392

           TOTAL OUT =223014191104.0000             TOTAL OUT =          51.6327

            IN - OUT =    -1523712.0000              IN - OUT =       1.5564E-03

 PERCENT DISCREPANCY =          -0.00     PERCENT DISCREPANCY =           0.00






         TIME SUMMARY AT END OF TIME STEP   40 IN STRESS PERIOD    2
                    SECONDS     MINUTES      HOURS       DAYS        YEARS
                    -----------------------------------------------------------
   TIME STEP LENGTH 5.57789E+07 9.29648E+05  15494.      645.59      1.7675    
 STRESS PERIOD TIME 6.00011E+08 1.00002E+07 1.66670E+05  6944.6      19.013    
         TOTAL TIME 2.17789E+09 3.62982E+07 6.04970E+05  25207.      69.013    
1
 
 SOLVING FOR HEAD 
    15 ITERATIONS FOR TIME STEP  41 IN STRESS PERIOD    2

 MAXIMUM HEAD CHANGE FOR EACH ITERATION:

    HEAD CHANGE   HEAD CHANGE   HEAD CHANGE   HEAD CHANGE   HEAD CHANGE
  LAYER,ROW,COL LAYER,ROW,COL LAYER,ROW,COL LAYER,ROW,COL LAYER,ROW,COL
 ----------------------------------------------------------------------
      3.198         1.523         1.480        0.7755        0.4526    
  (  1,  2,  8) (  1,  5,  8) (  1,  3,  4) (  1,  5,  8) (  1,  2,  3)
     0.1585        0.5324E-01    0.3754E-01    0.3087E-01    0.1343E-01
  (  1,  6,  8) (  1,  3,  4) (  1,  6,  5) (  1,  3,  4) (  1,  6,  8)
     0.3533E-02    0.1841E-02    0.2096E-02    0.1173E-02    0.6319E-03
  (  1,  2,  3) (  1,  4,  3) (  1,  3,  4) (  1,  6,  8) (  1,  3,  4)


 NO OUTPUT CONTROL FOR STRESS PERIOD    2   TIME STEP   41
 
 SOLVING FOR HEAD 
    14 ITERATIONS FOR TIME STEP  42 IN STRESS PERIOD    2

 MAXIMUM HEAD CHANGE FOR EACH ITERATION:

    HEAD CHANGE   HEAD CHANGE   HEAD CHANGE   HEAD CHANGE   HEAD CHANGE
  LAYER,ROW,COL LAYER,ROW,COL LAYER,ROW,COL LAYER,ROW,COL LAYER,ROW,COL
 ----------------------------------------------------------------------
      2.746         1.246         1.083        0.6383        0.3560    
  (  1,  4,  1) (  1,  6,  1) (  1,  5,  5) (  1, 10,  7) (  1, 10,  7)
     0.2044        0.6604E-01    0.3283E-01    0.1880E-01    0.1123E-01
  (  1, 11,  7) (  1, 11,  7) (  1, 11,  7) (  1, 11,  7) (  1, 11,  7)
     0.4706E-02    0.1902E-02    0.1148E-02    0.7339E-03
  (  1, 11,  7) (  1, 11,  7) (  1, 11,  7) (  1, 11,  7)


 OUTPUT CONTROL FOR STRESS PERIOD    2   TIME STEP   42
    PRINT BUDGET
    PRINT HEAD FOR ALL LAYERS



 STREAM LISTING     PERIOD      2   STEP       42

 LAYER ROW COL. STREAM  RCH.  FLOW INTO     FLOW TO   FLOW OUT OF   OVRLND.     DIRECT     STREAM       STREAM     STREAM     STREAM   STREAMBED  STREAMBED
                SEG.NO.  NO.  STRM. RCH.    AQUIFER    STRM. RCH.    RUNOFF     PRECIP       ET          HEAD       DEPTH      WIDTH   CONDCTNC.   GRADIENT

   1    1    1     1     1    2.5000E+01  1.0180E+00   2.3982E+01  0.000E+00  0.000E+00  0.000E+00  1.09422E+03  1.173E+00  1.296E+01  5.832E-01  5.818E-01
   1    2    2     1     2    2.3982E+01  3.0941E+00   2.0888E+01  0.000E+00  0.000E+00  0.000E+00  1.08920E+03  1.141E+00  1.254E+01  8.775E-01  1.175E+00
   1    3    3     1     3    2.0888E+01  2.9038E+00   1.7984E+01  0.000E+00  0.000E+00  0.000E+00  1.08351E+03  1.091E+00  1.183E+01  7.098E-01  1.364E+00
   1    3    4     1     4    1.7984E+01  2.4666E+00   1.5518E+01  0.000E+00  0.000E+00  0.000E+00  1.07845E+03  1.045E+00  1.099E+01  6.098E-01  1.348E+00
   1    4    5     2     1    5.5175E+00  2.6624E+00   2.8552E+00  0.000E+00  0.000E+00  0.000E+00  1.07235E+03  4.133E-01  1.200E+01  7.800E-01  1.138E+00
   1    5    6     2     2    2.8552E+00  1.9533E+00   9.0185E-01  0.000E+00  0.000E+00  0.000E+00  1.06676E+03  2.555E-01  1.200E+01  6.000E-01  1.085E+00
   1    6    6     2     3    9.0185E-01  9.0185E-01   0.0000E+00  0.000E+00  0.000E+00  0.000E+00  1.06183E+03  3.702E-02  1.200E+01  6.000E-01  1.012E+00
   1    7    6     2     4    0.0000E+00  0.0000E+00   0.0000E+00  0.000E+00  0.000E+00  0.000E+00  1.05708E+03  0.000E+00  1.200E+01  6.000E-01  1.000E+00
   1    8    6     2     5    0.0000E+00  0.0000E+00   0.0000E+00  0.000E+00  0.000E+00  0.000E+00  1.05236E+03  0.000E+00  1.200E+01  6.000E-01  1.000E+00
   1    3    5     3     1    1.0000E+01  2.8252E+00   7.1748E+00  0.000E+00  0.000E+00  0.000E+00  1.07555E+03  1.909E+00  9.636E+00  7.227E-01  1.955E+00
   1    3    6     3     2    7.1748E+00  1.7464E+00   5.4284E+00  0.000E+00  0.000E+00  0.000E+00  1.07264E+03  1.727E+00  8.909E+00  6.682E-01  1.307E+00
   1    3    7     3     3    5.4284E+00  7.4841E-01   4.6800E+00  0.000E+00  0.000E+00  0.000E+00  1.06987E+03  1.555E+00  8.218E+00  5.547E-01  6.746E-01
   1    4    8     3     4    4.6800E+00  1.0401E+00   3.6399E+00  0.000E+00  0.000E+00  0.000E+00  1.06682E+03  1.364E+00  7.455E+00  6.709E-01  7.751E-01
   1    5    8     3     5    3.6399E+00  1.5459E+00   2.0940E+00  0.000E+00  0.000E+00  0.000E+00  1.06362E+03  1.164E+00  6.655E+00  4.991E-01  1.549E+00
   1    6    8     3     6    2.0940E+00  5.5980E-01   1.5342E+00  0.000E+00  0.000E+00  0.000E+00  1.06158E+03  1.036E+00  6.145E+00  1.844E-01  1.518E+00
   1    5   10     4     1    1.0000E+01  9.0525E-01   9.0947E+00  0.000E+00  0.000E+00  0.000E+00  1.07835E+03  6.210E-01  1.000E+01  2.500E-01  1.207E+00
   1    5    9     4     2    9.0947E+00  1.7835E+00   7.3113E+00  0.000E+00  0.000E+00  0.000E+00  1.07148E+03  5.670E-01  1.000E+01  5.000E-01  1.189E+00
   1    6    8     4     3    7.3113E+00  1.2257E+00   6.0855E+00  0.000E+00  0.000E+00  0.000E+00  1.06368E+03  5.021E-01  1.000E+01  3.500E-01  1.167E+00
   1    6    8     5     1    7.6197E+00  4.6932E-01   7.1504E+00  0.000E+00  0.000E+00  0.000E+00  1.05860E+03  6.040E-01  1.261E+01  5.045E-01  3.101E-01
   1    7    7     5     2    7.1504E+00  1.3499E+00   5.8005E+00  0.000E+00  0.000E+00  0.000E+00  1.05408E+03  5.769E-01  1.166E+01  5.829E-01  7.720E-01
   1    8    7     5     3    5.8005E+00  1.2098E+00   4.5908E+00  0.000E+00  0.000E+00  0.000E+00  1.04978E+03  5.341E-01  1.021E+01  3.575E-01  1.128E+00
   1    8    6     5     4    4.5908E+00  3.9050E-01   4.2003E+00  0.000E+00  0.000E+00  0.000E+00  1.04675E+03  5.037E-01  9.238E+00  2.310E-01  5.636E-01
   1    9    6     6     1    4.2003E+00  1.8715E+00   2.3288E+00  0.000E+00  0.000E+00  0.000E+00  1.04309E+03  3.600E-01  1.200E+01  6.000E-01  1.040E+00
   1   10    7     6     2    2.3288E+00  1.7634E+00   5.6532E-01  0.000E+00  0.000E+00  0.000E+00  1.03840E+03  2.209E-01  1.200E+01  6.000E-01  9.797E-01
   1   11    7     6     3    5.6532E-01  5.6532E-01   0.0000E+00  0.000E+00  0.000E+00  0.000E+00  1.03366E+03  2.827E-02  1.200E+01  6.000E-01  9.366E-01
   1   12    7     6     4    0.0000E+00  0.0000E+00   0.0000E+00  0.000E+00  0.000E+00  0.000E+00  1.02909E+03  0.000E+00  1.200E+01  6.000E-01  4.640E-01
   1   13    7     6     5    0.0000E+00 -7.1930E-01   7.1930E-01  0.000E+00  0.000E+00  0.000E+00  1.02600E+03  9.583E-02  1.200E+01  2.400E-01 -9.990E-01
   1   14    9     7     1    1.5000E+02  2.9892E+00   1.4701E+02  0.000E+00  0.000E+00  0.000E+00  1.03986E+03  2.283E+00  5.527E+01  5.591E+00  1.782E-01
   1   13    8     7     2    1.4701E+02  4.2017E+00   1.4281E+02  0.000E+00  0.000E+00  0.000E+00  1.03476E+03  2.264E+00  5.519E+01  6.140E+00  2.281E-01
   1   13    7     7     3    1.4281E+02  3.6778E+00   1.3913E+02  0.000E+00  0.000E+00  0.000E+00  1.02966E+03  2.243E+00  5.509E+01  5.571E+00  2.201E-01
   1   13    6     8     1    1.3985E+02  1.8604E+00   1.3799E+02  0.000E+00  0.000E+00  0.000E+00  1.02461E+03  2.737E+00  3.969E+01  4.044E+00  1.533E-01
   1   13    5     8     2    1.3799E+02 -9.7644E-01   1.3897E+02  0.000E+00  0.000E+00  0.000E+00  1.01836E+03  2.734E+00  3.964E+01  4.039E+00 -8.058E-02
   1   13    4     8     3    1.3897E+02 -2.7380E+00   1.4170E+02  0.000E+00  0.000E+00  0.000E+00  1.01212E+03  2.747E+00  3.984E+01  4.059E+00 -2.248E-01
   1   13    3     8     4    1.4170E+02 -2.8928E+00   1.4460E+02  0.000E+00  0.000E+00  0.000E+00  1.00589E+03  2.768E+00  4.013E+01  4.090E+00 -2.358E-01
   1   13    2     8     5    1.4460E+02 -1.0548E+00   1.4565E+02  0.000E+00  0.000E+00  0.000E+00  9.99657E+02  2.782E+00  4.034E+01  4.111E+00 -8.553E-02
   1   13    1     8     6    1.4565E+02  4.2410E-01   1.4523E+02  0.000E+00  0.000E+00  0.000E+00  9.94659E+02  2.784E+00  4.037E+01  2.469E+00  5.727E-02



1
              HEAD IN LAYER   1 AT END OF TIME STEP  42 IN STRESS PERIOD    2
  ---------------------------------------------------------------------------

           1       2       3       4       5       6       7       8       9      10
 ...................................................................................
   1  1092.47 1088.34 6999.00 6999.00 6999.00 6999.00 6999.00 6999.00 6999.00 6999.00
   2  1088.55 1085.67 1079.08 6999.00 6999.00 1069.52 1068.61 1067.59 6999.00 6999.00
   3  6999.00 1076.36 1074.65 1070.96 1071.54 1070.02 1068.52 1066.88 6999.00 6999.00
   4  1060.59 1065.24 1066.67 1064.34 1063.33 1061.82 1062.36 1065.27 1063.44 6999.00
   5  1056.29 1057.87 1058.98 1058.72 1058.51 1058.76 1058.48 1060.52 1063.16 1064.49
   6  1051.26 1052.25 1053.25 1053.73 1053.94 1054.73 1055.52 1057.67 1059.08 1060.88
   7  1047.79 1047.40 1048.18 1048.86 1049.25 1050.12 1051.76 1053.78 1053.12 6999.00
   8  6999.00 1041.95 1042.83 1043.66 1044.14 1045.06 1046.40 1047.54 1046.23 6999.00
   9  6999.00 1035.80 1036.94 1038.04 1038.77 1039.97 1040.40 1040.46 1039.78 6999.00
  10  6999.00 1028.84 1030.43 1032.19 1033.31 1034.44 1035.46 1035.49 1035.40 1035.41
  11  6999.00 1020.07 1022.23 1026.10 1027.94 1029.62 1030.85 1031.93 1033.26 6999.00
  12  1000.88 1008.77 1014.17 1019.21 1022.68 1025.61 1027.70 1029.78 1033.34 6999.00
  13   994.49  999.91 1006.60 1012.80 1018.60 1024.15 1029.00 1034.08 1036.02 6999.00
  14  6999.00 1003.91 1008.83 1013.56 1018.74 1023.89 1029.39 1035.07 1039.33 6999.00
  15  6999.00 6999.00 1011.69 1014.86 1018.89 1022.15 6999.00 6999.00 6999.00 6999.00
1
  VOLUMETRIC BUDGET FOR ENTIRE MODEL AT END OF TIME STEP   42, STRESS PERIOD   2
  ------------------------------------------------------------------------------

     CUMULATIVE VOLUMES      L**3       RATES FOR THIS TIME STEP      L**3/T
     ------------------                 ------------------------

           IN:                                      IN:
           ---                                      ---
             STORAGE = 30236489728.0000               STORAGE =           0.0000
       CONSTANT HEAD =           0.0000         CONSTANT HEAD =           0.0000
               WELLS =           0.0000                 WELLS =           0.0000
                  ET =           0.0000                    ET =           0.0000
     HEAD DEP BOUNDS =   501757344.0000       HEAD DEP BOUNDS =           0.2155
            RECHARGE =  4137715712.0000              RECHARGE =           1.7937
      STREAM LEAKAGE =194648866816.0000        STREAM LEAKAGE =          48.1532

            TOTAL IN =229524832256.0000              TOTAL IN =          50.1624

          OUT:                                     OUT:
          ----                                     ----
             STORAGE = 29467529216.0000               STORAGE =          12.7035
       CONSTANT HEAD =           0.0000         CONSTANT HEAD =           0.0000
               WELLS =157788012544.0000                 WELLS =           0.0000
                  ET = 38354825216.0000                    ET =          28.8308
     HEAD DEP BOUNDS =   525210912.0000       HEAD DEP BOUNDS =           0.2465
            RECHARGE =           0.0000              RECHARGE =           0.0000
      STREAM LEAKAGE =  3390724608.0000        STREAM LEAKAGE =           8.3814

           TOTAL OUT =229526290432.0000             TOTAL OUT =          50.1622

            IN - OUT =    -1458176.0000              IN - OUT =       1.7548E-04

 PERCENT DISCREPANCY =          -0.00     PERCENT DISCREPANCY =           0.00






         TIME SUMMARY AT END OF TIME STEP   42 IN STRESS PERIOD    2
                    SECONDS     MINUTES      HOURS       DAYS        YEARS
                    -----------------------------------------------------------
   TIME STEP LENGTH 6.74925E+07 1.12487E+06  18748.      781.16      2.1387    
 STRESS PERIOD TIME 7.28860E+08 1.21477E+07 2.02461E+05  8435.9      23.096    
         TOTAL TIME 2.30674E+09 3.84457E+07 6.40761E+05  26698.      73.096    
1
 
 SOLVING FOR HEAD 
    10 ITERATIONS FOR TIME STEP  43 IN STRESS PERIOD    2

 MAXIMUM HEAD CHANGE FOR EACH ITERATION:

    HEAD CHANGE   HEAD CHANGE   HEAD CHANGE   HEAD CHANGE   HEAD CHANGE
  LAYER,ROW,COL LAYER,ROW,COL LAYER,ROW,COL LAYER,ROW,COL LAYER,ROW,COL
 ----------------------------------------------------------------------
      2.137        0.9635        0.4734        0.1690        0.1103    
  (  1,  4,  1) (  1,  6,  1) (  1,  3,  4) (  1,  6,  2) (  1,  3,  4)
     0.1677E-01    0.8956E-02    0.3438E-02    0.2965E-02    0.4927E-03
  (  1, 10, 10) (  1,  2,  3) (  1,  4,  2) (  1,  3,  4) (  1,  4,  3)


 NO OUTPUT CONTROL FOR STRESS PERIOD    2   TIME STEP   43
 
 SOLVING FOR HEAD 
    10 ITERATIONS FOR TIME STEP  44 IN STRESS PERIOD    2

 MAXIMUM HEAD CHANGE FOR EACH ITERATION:

    HEAD CHANGE   HEAD CHANGE   HEAD CHANGE   HEAD CHANGE   HEAD CHANGE
  LAYER,ROW,COL LAYER,ROW,COL LAYER,ROW,COL LAYER,ROW,COL LAYER,ROW,COL
 ----------------------------------------------------------------------
      1.398        0.6183        0.2457        0.8844E-01    0.2903E-01
  (  1,  4,  1) (  1,  6,  1) (  1,  5,  1) (  1,  6,  2) (  1,  5,  3)
     0.9588E-02    0.3054E-02    0.1510E-02    0.9985E-03    0.2011E-03
  (  1, 10, 10) (  1,  2,  3) (  1,  6,  2) (  1,  3,  4) (  1,  4,  3)


 NO OUTPUT CONTROL FOR STRESS PERIOD    2   TIME STEP   44
 
 SOLVING FOR HEAD 
     9 ITERATIONS FOR TIME STEP  45 IN STRESS PERIOD    2

 MAXIMUM HEAD CHANGE FOR EACH ITERATION:

    HEAD CHANGE   HEAD CHANGE   HEAD CHANGE   HEAD CHANGE   HEAD CHANGE
  LAYER,ROW,COL LAYER,ROW,COL LAYER,ROW,COL LAYER,ROW,COL LAYER,ROW,COL
 ----------------------------------------------------------------------
     0.8107        0.3521        0.1301        0.4341E-01    0.1622E-01
  (  1,  7,  1) (  1,  6,  1) (  1,  5,  1) (  1,  5,  2) (  1,  3,  4)
     0.5826E-02    0.1777E-02    0.8460E-03    0.5379E-03
  (  1, 10, 10) (  1,  2,  3) (  1,  5,  2) (  1,  3,  4)


 OUTPUT CONTROL FOR STRESS PERIOD    2   TIME STEP   45
    PRINT BUDGET
    PRINT HEAD FOR ALL LAYERS
    SAVE BUDGET
 UBUDSV SAVING "              ET" ON UNIT 59 AT TIME STEP 45, STRESS PERIOD    2

  HEAD DEP BOUNDS   PERIOD    2   STEP  45
 BOUNDARY      1   LAYER   1   ROW    13   COL     1   RATE   -0.248176    
 BOUNDARY      2   LAYER   1   ROW    14   COL     9   RATE    0.215282    



 STREAM LISTING     PERIOD      2   STEP       45

 LAYER ROW COL. STREAM  RCH.  FLOW INTO     FLOW TO   FLOW OUT OF   OVRLND.     DIRECT     STREAM       STREAM     STREAM     STREAM   STREAMBED  STREAMBED
                SEG.NO.  NO.  STRM. RCH.    AQUIFER    STRM. RCH.    RUNOFF     PRECIP       ET          HEAD       DEPTH      WIDTH   CONDCTNC.   GRADIENT

   1    1    1     1     1    2.5000E+01  8.0672E-01   2.4193E+01  0.000E+00  0.000E+00  0.000E+00  1.09422E+03  1.174E+00  1.298E+01  5.842E-01  4.603E-01
   1    2    2     1     2    2.4193E+01  2.2180E+00   2.1975E+01  0.000E+00  0.000E+00  0.000E+00  1.08921E+03  1.151E+00  1.267E+01  8.871E-01  8.335E-01
   1    3    3     1     3    2.1975E+01  2.9849E+00   1.8990E+01  0.000E+00  0.000E+00  0.000E+00  1.08353E+03  1.108E+00  1.211E+01  7.266E-01  1.369E+00
   1    3    4     1     4    1.8990E+01  2.5471E+00   1.6443E+01  0.000E+00  0.000E+00  0.000E+00  1.07847E+03  1.062E+00  1.130E+01  6.270E-01  1.354E+00
   1    4    5     2     1    6.4434E+00  2.7026E+00   3.7408E+00  0.000E+00  0.000E+00  0.000E+00  1.07240E+03  4.648E-01  1.200E+01  7.800E-01  1.155E+00
   1    5    6     2     2    3.7408E+00  1.9925E+00   1.7483E+00  0.000E+00  0.000E+00  0.000E+00  1.06683E+03  3.208E-01  1.200E+01  6.000E-01  1.107E+00
   1    6    6     2     3    1.7483E+00  1.7483E+00   0.0000E+00  0.000E+00  0.000E+00  0.000E+00  1.06185E+03  5.507E-02  1.200E+01  6.000E-01  1.018E+00
   1    7    6     2     4    0.0000E+00  0.0000E+00   0.0000E+00  0.000E+00  0.000E+00  0.000E+00  1.05708E+03  0.000E+00  1.200E+01  6.000E-01  1.000E+00
   1    8    6     2     5    0.0000E+00  0.0000E+00   0.0000E+00  0.000E+00  0.000E+00  0.000E+00  1.05236E+03  0.000E+00  1.200E+01  6.000E-01  1.000E+00
   1    3    5     3     1    1.0000E+01  2.2344E+00   7.7656E+00  0.000E+00  0.000E+00  0.000E+00  1.07555E+03  1.909E+00  9.636E+00  7.227E-01  1.546E+00
   1    3    6     3     2    7.7656E+00  1.3996E+00   6.3660E+00  0.000E+00  0.000E+00  0.000E+00  1.07264E+03  1.727E+00  8.909E+00  6.682E-01  1.047E+00
   1    3    7     3     3    6.3660E+00  4.4289E-01   5.9232E+00  0.000E+00  0.000E+00  0.000E+00  1.06987E+03  1.555E+00  8.218E+00  5.547E-01  3.992E-01
   1    4    8     3     4    5.9232E+00  6.3385E-01   5.2893E+00  0.000E+00  0.000E+00  0.000E+00  1.06682E+03  1.364E+00  7.455E+00  6.709E-01  4.724E-01
   1    5    8     3     5    5.2893E+00  8.3877E-01   4.4505E+00  0.000E+00  0.000E+00  0.000E+00  1.06362E+03  1.164E+00  6.655E+00  4.991E-01  8.403E-01
   1    6    8     3     6    4.4505E+00  4.7094E-01   3.9796E+00  0.000E+00  0.000E+00  0.000E+00  1.06158E+03  1.036E+00  6.145E+00  1.844E-01  1.277E+00
   1    5   10     4     1    1.0000E+01  9.0525E-01   9.0947E+00  0.000E+00  0.000E+00  0.000E+00  1.07835E+03  6.210E-01  1.000E+01  2.500E-01  1.207E+00
   1    5    9     4     2    9.0947E+00  1.7835E+00   7.3113E+00  0.000E+00  0.000E+00  0.000E+00  1.07148E+03  5.670E-01  1.000E+01  5.000E-01  1.189E+00
   1    6    8     4     3    7.3113E+00  1.2257E+00   6.0855E+00  0.000E+00  0.000E+00  0.000E+00  1.06368E+03  5.021E-01  1.000E+01  3.500E-01  1.167E+00
   1    6    8     5     1    1.0065E+01 -2.1503E-01   1.0280E+01  0.000E+00  0.000E+00  0.000E+00  1.05868E+03  6.756E-01  1.528E+01  6.114E-01 -1.172E-01
   1    7    7     5     2    1.0280E+01  7.8292E-01   9.4972E+00  0.000E+00  0.000E+00  0.000E+00  1.05417E+03  6.690E-01  1.503E+01  7.513E-01  3.473E-01
   1    8    7     5     3    9.4972E+00  1.0600E+00   8.4372E+00  0.000E+00  0.000E+00  0.000E+00  1.04990E+03  6.465E-01  1.417E+01  4.960E-01  7.124E-01
   1    8    6     5     4    8.4372E+00  1.7100E-01   8.2662E+00  0.000E+00  0.000E+00  0.000E+00  1.04688E+03  6.306E-01  1.358E+01  3.395E-01  1.679E-01
   1    9    6     6     1    8.2662E+00  1.4011E+00   6.8651E+00  0.000E+00  0.000E+00  0.000E+00  1.04332E+03  5.960E-01  1.200E+01  6.000E-01  7.784E-01
   1   10    7     6     2    6.8651E+00  1.3518E+00   5.5134E+00  0.000E+00  0.000E+00  0.000E+00  1.03871E+03  5.283E-01  1.200E+01  6.000E-01  7.510E-01
   1   11    7     6     3    5.5134E+00  1.2275E+00   4.2858E+00  0.000E+00  0.000E+00  0.000E+00  1.03410E+03  4.592E-01  1.200E+01  6.000E-01  6.820E-01
   1   12    7     6     4    4.2858E+00  5.6963E-01   3.7162E+00  0.000E+00  0.000E+00  0.000E+00  1.02950E+03  4.066E-01  1.200E+01  6.000E-01  3.165E-01
   1   13    7     6     5    3.7162E+00 -6.6522E-01   4.3814E+00  0.000E+00  0.000E+00  0.000E+00  1.02632E+03  4.096E-01  1.200E+01  2.400E-01 -9.239E-01
   1   14    9     7     1    1.5000E+02  2.9599E+00   1.4704E+02  0.000E+00  0.000E+00  0.000E+00  1.03986E+03  2.283E+00  5.528E+01  5.591E+00  1.765E-01
   1   13    8     7     2    1.4704E+02  4.0652E+00   1.4297E+02  0.000E+00  0.000E+00  0.000E+00  1.03476E+03  2.265E+00  5.519E+01  6.140E+00  2.207E-01
   1   13    7     7     3    1.4297E+02  3.1984E+00   1.3978E+02  0.000E+00  0.000E+00  0.000E+00  1.02966E+03  2.245E+00  5.510E+01  5.572E+00  1.913E-01
   1   13    6     8     1    1.4416E+02  1.5793E+00   1.4258E+02  0.000E+00  0.000E+00  0.000E+00  1.02464E+03  2.769E+00  4.016E+01  4.092E+00  1.286E-01
   1   13    5     8     2    1.4258E+02 -1.2396E+00   1.4382E+02  0.000E+00  0.000E+00  0.000E+00  1.01839E+03  2.768E+00  4.014E+01  4.090E+00 -1.010E-01
   1   13    4     8     3    1.4382E+02 -2.9520E+00   1.4677E+02  0.000E+00  0.000E+00  0.000E+00  1.01216E+03  2.783E+00  4.036E+01  4.113E+00 -2.393E-01
   1   13    3     8     4    1.4677E+02 -3.0388E+00   1.4981E+02  0.000E+00  0.000E+00  0.000E+00  1.00593E+03  2.805E+00  4.067E+01  4.144E+00 -2.444E-01
   1   13    2     8     5    1.4981E+02 -1.1067E+00   1.5092E+02  0.000E+00  0.000E+00  0.000E+00  9.99694E+02  2.819E+00  4.088E+01  4.166E+00 -8.855E-02
   1   13    1     8     6    1.5092E+02  4.1496E-01   1.5050E+02  0.000E+00  0.000E+00  0.000E+00  9.94697E+02  2.822E+00  4.092E+01  2.502E+00  5.529E-02



1
              HEAD IN LAYER   1 AT END OF TIME STEP  45 IN STRESS PERIOD    2
  ---------------------------------------------------------------------------

           1       2       3       4       5       6       7       8       9      10
 ...................................................................................
   1  1092.84 1089.39 6999.00 6999.00 6999.00 6999.00 6999.00 6999.00 6999.00 6999.00
   2  1089.82 1086.71 1081.37 6999.00 6999.00 1071.38 1070.64 1070.21 6999.00 6999.00
   3  6999.00 1079.20 1077.44 1073.50 1072.45 1070.54 1069.07 1068.26 6999.00 6999.00
   4  1067.58 1069.95 1069.95 1066.89 1065.32 1063.51 1063.78 1065.87 1065.80 6999.00
   5  1063.50 1063.16 1062.57 1061.30 1060.66 1060.64 1060.12 1061.94 1065.53 1067.89
   6  1058.55 1057.59 1056.82 1056.23 1056.14 1056.77 1057.12 1059.03 1061.74 1065.24
   7  1054.95 1052.37 1051.42 1051.04 1051.14 1051.76 1053.13 1055.38 1056.25 6999.00
   8  6999.00 1045.85 1045.49 1045.42 1045.65 1046.38 1047.76 1049.69 1050.02 6999.00
   9  6999.00 1038.74 1038.96 1039.39 1039.96 1040.99 1041.57 1042.65 1043.54 6999.00
  10  6999.00 1030.88 1031.69 1033.19 1034.27 1035.39 1036.46 1037.41 1038.73 1040.35
  11  6999.00 1021.31 1023.04 1026.80 1028.67 1030.45 1032.05 1033.42 1035.38 6999.00
  12  1001.14 1009.20 1014.49 1019.60 1023.12 1026.16 1028.55 1030.33 1034.17 6999.00
  13   994.53  999.96 1006.66 1012.88 1018.70 1024.26 1029.09 1034.10 1036.12 6999.00
  14  6999.00 1004.00 1008.94 1013.68 1018.87 1024.02 1029.47 1035.09 1039.33 6999.00
  15  6999.00 6999.00 1011.87 1015.05 1019.08 1022.35 6999.00 6999.00 6999.00 6999.00
1
  VOLUMETRIC BUDGET FOR ENTIRE MODEL AT END OF TIME STEP   45, STRESS PERIOD   2
  ------------------------------------------------------------------------------

     CUMULATIVE VOLUMES      L**3       RATES FOR THIS TIME STEP      L**3/T
     ------------------                 ------------------------

           IN:                                      IN:
           ---                                      ---
             STORAGE = 30236489728.0000               STORAGE =           0.0000
       CONSTANT HEAD =           0.0000         CONSTANT HEAD =           0.0000
               WELLS =           0.0000                 WELLS =           0.0000
                  ET =           0.0000                    ET =           0.0000
     HEAD DEP BOUNDS =   554670272.0000       HEAD DEP BOUNDS =           0.2153
            RECHARGE =  4578511872.0000              RECHARGE =           1.7937
      STREAM LEAKAGE =205572194304.0000        STREAM LEAKAGE =          43.7165

            TOTAL IN =240941858816.0000              TOTAL IN =          45.7256

          OUT:                                     OUT:
          ----                                     ----
             STORAGE = 30167341056.0000               STORAGE =           0.9452
       CONSTANT HEAD =           0.0000         CONSTANT HEAD =           0.0000
               WELLS =157788012544.0000                 WELLS =           0.0000
                  ET = 46786904064.0000                    ET =          35.3140
     HEAD DEP BOUNDS =   586126528.0000       HEAD DEP BOUNDS =           0.2482
            RECHARGE =           0.0000              RECHARGE =           0.0000
      STREAM LEAKAGE =  5614675968.0000        STREAM LEAKAGE =           9.2173

           TOTAL OUT =240943054848.0000             TOTAL OUT =          45.7247

            IN - OUT =    -1196032.0000              IN - OUT =       9.3079E-04

 PERCENT DISCREPANCY =          -0.00     PERCENT DISCREPANCY =           0.00






         TIME SUMMARY AT END OF TIME STEP   45 IN STRESS PERIOD    2
                    SECONDS     MINUTES      HOURS       DAYS        YEARS
                    -----------------------------------------------------------
   TIME STEP LENGTH 8.98325E+07 1.49721E+06  24953.      1039.7      2.8466    
 STRESS PERIOD TIME 9.74600E+08 1.62433E+07 2.70722E+05  11280.      30.883    
         TOTAL TIME 2.55248E+09 4.25413E+07 7.09022E+05  29543.      80.883    
1
 
 SOLVING FOR HEAD 
     8 ITERATIONS FOR TIME STEP  46 IN STRESS PERIOD    2

 MAXIMUM HEAD CHANGE FOR EACH ITERATION:

    HEAD CHANGE   HEAD CHANGE   HEAD CHANGE   HEAD CHANGE   HEAD CHANGE
  LAYER,ROW,COL LAYER,ROW,COL LAYER,ROW,COL LAYER,ROW,COL LAYER,ROW,COL
 ----------------------------------------------------------------------
     0.4564        0.1835        0.6617E-01    0.2138E-01    0.7258E-02
  (  1, 10, 10) (  1,  6,  1) (  1,  5,  1) (  1,  5,  2) (  1,  3,  4)
     0.3410E-02    0.8340E-03    0.4206E-03
  (  1, 10, 10) (  1,  2,  3) (  1,  5,  2)


 OUTPUT CONTROL FOR STRESS PERIOD    2   TIME STEP   46
    PRINT BUDGET
    PRINT HEAD FOR ALL LAYERS
    SAVE BUDGET
 UBUDSV SAVING "              ET" ON UNIT 59 AT TIME STEP 46, STRESS PERIOD    2

  HEAD DEP BOUNDS   PERIOD    2   STEP  46
 BOUNDARY      1   LAYER   1   ROW    13   COL     1   RATE   -0.248262    
 BOUNDARY      2   LAYER   1   ROW    14   COL     9   RATE    0.215268    



 STREAM LISTING     PERIOD      2   STEP       46

 LAYER ROW COL. STREAM  RCH.  FLOW INTO     FLOW TO   FLOW OUT OF   OVRLND.     DIRECT     STREAM       STREAM     STREAM     STREAM   STREAMBED  STREAMBED
                SEG.NO.  NO.  STRM. RCH.    AQUIFER    STRM. RCH.    RUNOFF     PRECIP       ET          HEAD       DEPTH      WIDTH   CONDCTNC.   GRADIENT

   1    1    1     1     1    2.5000E+01  7.9853E-01   2.4201E+01  0.000E+00  0.000E+00  0.000E+00  1.09422E+03  1.174E+00  1.298E+01  5.842E-01  4.556E-01
   1    2    2     1     2    2.4201E+01  2.1770E+00   2.2024E+01  0.000E+00  0.000E+00  0.000E+00  1.08921E+03  1.151E+00  1.268E+01  8.875E-01  8.177E-01
   1    3    3     1     3    2.2024E+01  2.9881E+00   1.9036E+01  0.000E+00  0.000E+00  0.000E+00  1.08353E+03  1.109E+00  1.212E+01  7.272E-01  1.370E+00
   1    3    4     1     4    1.9036E+01  2.5507E+00   1.6486E+01  0.000E+00  0.000E+00  0.000E+00  1.07847E+03  1.063E+00  1.131E+01  6.278E-01  1.354E+00
   1    4    5     2     1    6.4857E+00  2.7043E+00   3.7814E+00  0.000E+00  0.000E+00  0.000E+00  1.07240E+03  4.671E-01  1.200E+01  7.800E-01  1.156E+00
   1    5    6     2     2    3.7814E+00  1.9941E+00   1.7872E+00  0.000E+00  0.000E+00  0.000E+00  1.06683E+03  3.236E-01  1.200E+01  6.000E-01  1.108E+00
   1    6    6     2     3    1.7872E+00  1.7872E+00   0.0000E+00  0.000E+00  0.000E+00  0.000E+00  1.06185E+03  5.580E-02  1.200E+01  6.000E-01  1.019E+00
   1    7    6     2     4    0.0000E+00  0.0000E+00   0.0000E+00  0.000E+00  0.000E+00  0.000E+00  1.05708E+03  0.000E+00  1.200E+01  6.000E-01  1.000E+00
   1    8    6     2     5    0.0000E+00  0.0000E+00   0.0000E+00  0.000E+00  0.000E+00  0.000E+00  1.05236E+03  0.000E+00  1.200E+01  6.000E-01  1.000E+00
   1    3    5     3     1    1.0000E+01  2.2084E+00   7.7916E+00  0.000E+00  0.000E+00  0.000E+00  1.07555E+03  1.909E+00  9.636E+00  7.227E-01  1.528E+00
   1    3    6     3     2    7.7916E+00  1.3856E+00   6.4060E+00  0.000E+00  0.000E+00  0.000E+00  1.07264E+03  1.727E+00  8.909E+00  6.682E-01  1.037E+00
   1    3    7     3     3    6.4060E+00  4.2984E-01   5.9762E+00  0.000E+00  0.000E+00  0.000E+00  1.06987E+03  1.555E+00  8.218E+00  5.547E-01  3.874E-01
   1    4    8     3     4    5.9762E+00  6.1915E-01   5.3570E+00  0.000E+00  0.000E+00  0.000E+00  1.06682E+03  1.364E+00  7.455E+00  6.709E-01  4.614E-01
   1    5    8     3     5    5.3570E+00  8.1630E-01   4.5407E+00  0.000E+00  0.000E+00  0.000E+00  1.06362E+03  1.164E+00  6.655E+00  4.991E-01  8.178E-01
   1    6    8     3     6    4.5407E+00  4.6350E-01   4.0772E+00  0.000E+00  0.000E+00  0.000E+00  1.06158E+03  1.036E+00  6.145E+00  1.844E-01  1.257E+00
   1    5   10     4     1    1.0000E+01  9.0525E-01   9.0947E+00  0.000E+00  0.000E+00  0.000E+00  1.07835E+03  6.210E-01  1.000E+01  2.500E-01  1.207E+00
   1    5    9     4     2    9.0947E+00  1.7835E+00   7.3113E+00  0.000E+00  0.000E+00  0.000E+00  1.07148E+03  5.670E-01  1.000E+01  5.000E-01  1.189E+00
   1    6    8     4     3    7.3113E+00  1.2257E+00   6.0855E+00  0.000E+00  0.000E+00  0.000E+00  1.06368E+03  5.021E-01  1.000E+01  3.500E-01  1.167E+00
   1    6    8     5     1    1.0163E+01 -2.3968E-01   1.0402E+01  0.000E+00  0.000E+00  0.000E+00  1.05868E+03  6.782E-01  1.538E+01  6.153E-01 -1.298E-01
   1    7    7     5     2    1.0402E+01  7.5876E-01   9.6437E+00  0.000E+00  0.000E+00  0.000E+00  1.05417E+03  6.722E-01  1.515E+01  7.575E-01  3.339E-01
   1    8    7     5     3    9.6437E+00  1.0507E+00   8.5930E+00  0.000E+00  0.000E+00  0.000E+00  1.04990E+03  6.503E-01  1.431E+01  5.010E-01  6.991E-01
   1    8    6     5     4    8.5930E+00  1.5883E-01   8.4342E+00  0.000E+00  0.000E+00  0.000E+00  1.04688E+03  6.348E-01  1.374E+01  3.434E-01  1.542E-01
   1    9    6     6     1    8.4342E+00  1.3850E+00   7.0491E+00  0.000E+00  0.000E+00  0.000E+00  1.04333E+03  6.043E-01  1.200E+01  6.000E-01  7.695E-01
   1   10    7     6     2    7.0491E+00  1.3393E+00   5.7099E+00  0.000E+00  0.000E+00  0.000E+00  1.03872E+03  5.381E-01  1.200E+01  6.000E-01  7.440E-01
   1   11    7     6     3    5.7099E+00  1.2209E+00   4.4890E+00  0.000E+00  0.000E+00  0.000E+00  1.03411E+03  4.704E-01  1.200E+01  6.000E-01  6.783E-01
   1   12    7     6     4    4.4890E+00  5.6925E-01   3.9197E+00  0.000E+00  0.000E+00  0.000E+00  1.02951E+03  4.189E-01  1.200E+01  6.000E-01  3.162E-01
   1   13    7     6     5    3.9197E+00 -6.6274E-01   4.5825E+00  0.000E+00  0.000E+00  0.000E+00  1.02633E+03  4.217E-01  1.200E+01  2.400E-01 -9.205E-01
   1   14    9     7     1    1.5000E+02  2.9578E+00   1.4704E+02  0.000E+00  0.000E+00  0.000E+00  1.03986E+03  2.283E+00  5.528E+01  5.591E+00  1.763E-01
   1   13    8     7     2    1.4704E+02  4.0591E+00   1.4298E+02  0.000E+00  0.000E+00  0.000E+00  1.03476E+03  2.265E+00  5.519E+01  6.140E+00  2.204E-01
   1   13    7     7     3    1.4298E+02  3.1886E+00   1.3979E+02  0.000E+00  0.000E+00  0.000E+00  1.02966E+03  2.245E+00  5.510E+01  5.572E+00  1.907E-01
   1   13    6     8     1    1.4438E+02  1.5729E+00   1.4280E+02  0.000E+00  0.000E+00  0.000E+00  1.02465E+03  2.771E+00  4.018E+01  4.095E+00  1.280E-01
   1   13    5     8     2    1.4280E+02 -1.2480E+00   1.4405E+02  0.000E+00  0.000E+00  0.000E+00  1.01839E+03  2.770E+00  4.016E+01  4.093E+00 -1.016E-01
   1   13    4     8     3    1.4405E+02 -2.9603E+00   1.4701E+02  0.000E+00  0.000E+00  0.000E+00  1.01216E+03  2.785E+00  4.038E+01  4.115E+00 -2.398E-01
   1   13    3     8     4    1.4701E+02 -3.0457E+00   1.5006E+02  0.000E+00  0.000E+00  0.000E+00  1.00593E+03  2.806E+00  4.069E+01  4.147E+00 -2.448E-01
   1   13    2     8     5    1.5006E+02 -1.1097E+00   1.5117E+02  0.000E+00  0.000E+00  0.000E+00  9.99696E+02  2.821E+00  4.091E+01  4.169E+00 -8.874E-02
   1   13    1     8     6    1.5117E+02  4.1398E-01   1.5075E+02  0.000E+00  0.000E+00  0.000E+00  9.94699E+02  2.824E+00  4.094E+01  2.503E+00  5.513E-02



1
              HEAD IN LAYER   1 AT END OF TIME STEP  46 IN STRESS PERIOD    2
  ---------------------------------------------------------------------------

           1       2       3       4       5       6       7       8       9      10
 ...................................................................................
   1  1092.86 1089.43 6999.00 6999.00 6999.00 6999.00 6999.00 6999.00 6999.00 6999.00
   2  1089.87 1086.76 1081.48 6999.00 6999.00 1071.47 1070.74 1070.34 6999.00 6999.00
   3  6999.00 1079.37 1077.57 1073.61 1072.49 1070.56 1069.10 1068.32 6999.00 6999.00
   4  1068.22 1070.31 1070.13 1067.01 1065.41 1063.58 1063.83 1065.90 1065.89 6999.00
   5  1064.17 1063.59 1062.79 1061.42 1060.75 1060.71 1060.17 1061.98 1065.60 1068.02
   6  1059.25 1058.03 1057.04 1056.35 1056.23 1056.85 1057.17 1059.07 1061.84 1065.44
   7  1055.65 1052.78 1051.63 1051.14 1051.21 1051.82 1053.17 1055.43 1056.39 6999.00
   8  6999.00 1046.15 1045.65 1045.50 1045.71 1046.42 1047.80 1049.78 1050.24 6999.00
   9  6999.00 1038.94 1039.07 1039.45 1040.01 1041.02 1041.61 1042.77 1043.82 6999.00
  10  6999.00 1031.01 1031.75 1033.23 1034.30 1035.42 1036.49 1037.53 1039.04 1040.96
  11  6999.00 1021.39 1023.07 1026.82 1028.69 1030.47 1032.07 1033.50 1035.55 6999.00
  12  1001.16 1009.23 1014.51 1019.61 1023.13 1026.17 1028.56 1030.36 1034.24 6999.00
  13   994.53  999.96 1006.67 1012.88 1018.70 1024.26 1029.09 1034.10 1036.12 6999.00
  14  6999.00 1004.01 1008.95 1013.69 1018.88 1024.03 1029.48 1035.09 1039.34 6999.00
  15  6999.00 6999.00 1011.90 1015.08 1019.11 1022.37 6999.00 6999.00 6999.00 6999.00
1
  VOLUMETRIC BUDGET FOR ENTIRE MODEL AT END OF TIME STEP   46, STRESS PERIOD   2
  ------------------------------------------------------------------------------

     CUMULATIVE VOLUMES      L**3       RATES FOR THIS TIME STEP      L**3/T
     ------------------                 ------------------------

           IN:                                      IN:
           ---                                      ---
             STORAGE = 30236489728.0000               STORAGE =           0.0000
       CONSTANT HEAD =           0.0000         CONSTANT HEAD =           0.0000
               WELLS =           0.0000                 WELLS =           0.0000
                  ET =           0.0000                    ET =           0.0000
     HEAD DEP BOUNDS =   575942144.0000       HEAD DEP BOUNDS =           0.2153
            RECHARGE =  4755762688.0000              RECHARGE =           1.7937
      STREAM LEAKAGE =209871912960.0000        STREAM LEAKAGE =          43.5124

            TOTAL IN =245440118784.0000              TOTAL IN =          45.5214

          OUT:                                     OUT:
          ----                                     ----
             STORAGE = 30205579264.0000               STORAGE =           0.3870
       CONSTANT HEAD =           0.0000         CONSTANT HEAD =           0.0000
               WELLS =157788012544.0000                 WELLS =           0.0000
                  ET = 50306629632.0000                    ET =          35.6191
     HEAD DEP BOUNDS =   610658752.0000       HEAD DEP BOUNDS =           0.2483
            RECHARGE =           0.0000              RECHARGE =           0.0000
      STREAM LEAKAGE =  6530325504.0000        STREAM LEAKAGE =           9.2662

           TOTAL OUT =245441200128.0000             TOTAL OUT =          45.5205

            IN - OUT =    -1081344.0000              IN - OUT =       9.1553E-04

 PERCENT DISCREPANCY =          -0.00     PERCENT DISCREPANCY =           0.00






         TIME SUMMARY AT END OF TIME STEP   46 IN STRESS PERIOD    2
                    SECONDS     MINUTES      HOURS       DAYS        YEARS
                    -----------------------------------------------------------
   TIME STEP LENGTH 9.88157E+07 1.64693E+06  27449.      1143.7      3.1313    
 STRESS PERIOD TIME 1.07342E+09 1.78903E+07 2.98171E+05  12424.      34.014    
         TOTAL TIME 2.65130E+09 4.41883E+07 7.36471E+05  30686.      84.014    
1
 
 SOLVING FOR HEAD 
     7 ITERATIONS FOR TIME STEP  47 IN STRESS PERIOD    2

 MAXIMUM HEAD CHANGE FOR EACH ITERATION:

    HEAD CHANGE   HEAD CHANGE   HEAD CHANGE   HEAD CHANGE   HEAD CHANGE
  LAYER,ROW,COL LAYER,ROW,COL LAYER,ROW,COL LAYER,ROW,COL LAYER,ROW,COL
 ----------------------------------------------------------------------
     0.2471        0.8908E-01    0.3207E-01    0.1024E-01    0.3264E-02
  (  1, 10, 10) (  1,  6,  1) (  1,  6,  1) (  1,  6,  1) (  1,  6,  2)
     0.1905E-02    0.3908E-03
  (  1, 10, 10) (  1,  2,  3)


 OUTPUT CONTROL FOR STRESS PERIOD    2   TIME STEP   47
    PRINT BUDGET
    PRINT HEAD FOR ALL LAYERS
    SAVE BUDGET
 UBUDSV SAVING "              ET" ON UNIT 59 AT TIME STEP 47, STRESS PERIOD    2

  HEAD DEP BOUNDS   PERIOD    2   STEP  47
 BOUNDARY      1   LAYER   1   ROW    13   COL     1   RATE   -0.248297    
 BOUNDARY      2   LAYER   1   ROW    14   COL     9   RATE    0.215263    



 STREAM LISTING     PERIOD      2   STEP       47

 LAYER ROW COL. STREAM  RCH.  FLOW INTO     FLOW TO   FLOW OUT OF   OVRLND.     DIRECT     STREAM       STREAM     STREAM     STREAM   STREAMBED  STREAMBED
                SEG.NO.  NO.  STRM. RCH.    AQUIFER    STRM. RCH.    RUNOFF     PRECIP       ET          HEAD       DEPTH      WIDTH   CONDCTNC.   GRADIENT

   1    1    1     1     1    2.5000E+01  7.9525E-01   2.4205E+01  0.000E+00  0.000E+00  0.000E+00  1.09422E+03  1.174E+00  1.298E+01  5.842E-01  4.537E-01
   1    2    2     1     2    2.4205E+01  2.1595E+00   2.2045E+01  0.000E+00  0.000E+00  0.000E+00  1.08921E+03  1.152E+00  1.268E+01  8.877E-01  8.109E-01
   1    3    3     1     3    2.2045E+01  2.9895E+00   1.9056E+01  0.000E+00  0.000E+00  0.000E+00  1.08353E+03  1.109E+00  1.212E+01  7.275E-01  1.370E+00
   1    3    4     1     4    1.9056E+01  2.5522E+00   1.6504E+01  0.000E+00  0.000E+00  0.000E+00  1.07847E+03  1.063E+00  1.132E+01  6.281E-01  1.354E+00
   1    4    5     2     1    6.5036E+00  2.7051E+00   3.7985E+00  0.000E+00  0.000E+00  0.000E+00  1.07240E+03  4.680E-01  1.200E+01  7.800E-01  1.156E+00
   1    5    6     2     2    3.7985E+00  1.9948E+00   1.8037E+00  0.000E+00  0.000E+00  0.000E+00  1.06683E+03  3.247E-01  1.200E+01  6.000E-01  1.108E+00
   1    6    6     2     3    1.8037E+00  1.8037E+00   0.0000E+00  0.000E+00  0.000E+00  0.000E+00  1.06185E+03  5.610E-02  1.200E+01  6.000E-01  1.019E+00
   1    7    6     2     4    0.0000E+00  0.0000E+00   0.0000E+00  0.000E+00  0.000E+00  0.000E+00  1.05708E+03  0.000E+00  1.200E+01  6.000E-01  1.000E+00
   1    8    6     2     5    0.0000E+00  0.0000E+00   0.0000E+00  0.000E+00  0.000E+00  0.000E+00  1.05236E+03  0.000E+00  1.200E+01  6.000E-01  1.000E+00
   1    3    5     3     1    1.0000E+01  2.1974E+00   7.8026E+00  0.000E+00  0.000E+00  0.000E+00  1.07555E+03  1.909E+00  9.636E+00  7.227E-01  1.520E+00
   1    3    6     3     2    7.8026E+00  1.3799E+00   6.4227E+00  0.000E+00  0.000E+00  0.000E+00  1.07264E+03  1.727E+00  8.909E+00  6.682E-01  1.033E+00
   1    3    7     3     3    6.4227E+00  4.2475E-01   5.9979E+00  0.000E+00  0.000E+00  0.000E+00  1.06987E+03  1.555E+00  8.218E+00  5.547E-01  3.828E-01
   1    4    8     3     4    5.9979E+00  6.1360E-01   5.3843E+00  0.000E+00  0.000E+00  0.000E+00  1.06682E+03  1.364E+00  7.455E+00  6.709E-01  4.573E-01
   1    5    8     3     5    5.3843E+00  8.0777E-01   4.5766E+00  0.000E+00  0.000E+00  0.000E+00  1.06362E+03  1.164E+00  6.655E+00  4.991E-01  8.092E-01
   1    6    8     3     6    4.5766E+00  4.6062E-01   4.1159E+00  0.000E+00  0.000E+00  0.000E+00  1.06158E+03  1.036E+00  6.145E+00  1.844E-01  1.249E+00
   1    5   10     4     1    1.0000E+01  9.0525E-01   9.0947E+00  0.000E+00  0.000E+00  0.000E+00  1.07835E+03  6.210E-01  1.000E+01  2.500E-01  1.207E+00
   1    5    9     4     2    9.0947E+00  1.7835E+00   7.3113E+00  0.000E+00  0.000E+00  0.000E+00  1.07148E+03  5.670E-01  1.000E+01  5.000E-01  1.189E+00
   1    6    8     4     3    7.3113E+00  1.2257E+00   6.0855E+00  0.000E+00  0.000E+00  0.000E+00  1.06368E+03  5.021E-01  1.000E+01  3.500E-01  1.167E+00
   1    6    8     5     1    1.0201E+01 -2.4930E-01   1.0451E+01  0.000E+00  0.000E+00  0.000E+00  1.05868E+03  6.792E-01  1.542E+01  6.169E-01 -1.347E-01
   1    7    7     5     2    1.0451E+01  7.4887E-01   9.7019E+00  0.000E+00  0.000E+00  0.000E+00  1.05417E+03  6.734E-01  1.520E+01  7.599E-01  3.285E-01
   1    8    7     5     3    9.7019E+00  1.0467E+00   8.6552E+00  0.000E+00  0.000E+00  0.000E+00  1.04990E+03  6.518E-01  1.437E+01  5.030E-01  6.937E-01
   1    8    6     5     4    8.6552E+00  1.5369E-01   8.5015E+00  0.000E+00  0.000E+00  0.000E+00  1.04689E+03  6.365E-01  1.380E+01  3.450E-01  1.485E-01
   1    9    6     6     1    8.5015E+00  1.3783E+00   7.1232E+00  0.000E+00  0.000E+00  0.000E+00  1.04333E+03  6.076E-01  1.200E+01  6.000E-01  7.657E-01
   1   10    7     6     2    7.1232E+00  1.3338E+00   5.7894E+00  0.000E+00  0.000E+00  0.000E+00  1.03872E+03  5.419E-01  1.200E+01  6.000E-01  7.410E-01
   1   11    7     6     3    5.7894E+00  1.2179E+00   4.5715E+00  0.000E+00  0.000E+00  0.000E+00  1.03411E+03  4.749E-01  1.200E+01  6.000E-01  6.766E-01
   1   12    7     6     4    4.5715E+00  5.6897E-01   4.0025E+00  0.000E+00  0.000E+00  0.000E+00  1.02951E+03  4.239E-01  1.200E+01  6.000E-01  3.161E-01
   1   13    7     6     5    4.0025E+00 -6.6174E-01   4.6642E+00  0.000E+00  0.000E+00  0.000E+00  1.02634E+03  4.266E-01  1.200E+01  2.400E-01 -9.191E-01
   1   14    9     7     1    1.5000E+02  2.9571E+00   1.4704E+02  0.000E+00  0.000E+00  0.000E+00  1.03986E+03  2.283E+00  5.528E+01  5.591E+00  1.763E-01
   1   13    8     7     2    1.4704E+02  4.0566E+00   1.4299E+02  0.000E+00  0.000E+00  0.000E+00  1.03476E+03  2.265E+00  5.519E+01  6.140E+00  2.202E-01
   1   13    7     7     3    1.4299E+02  3.1846E+00   1.3980E+02  0.000E+00  0.000E+00  0.000E+00  1.02966E+03  2.245E+00  5.510E+01  5.572E+00  1.905E-01
   1   13    6     8     1    1.4447E+02  1.5702E+00   1.4290E+02  0.000E+00  0.000E+00  0.000E+00  1.02465E+03  2.772E+00  4.019E+01  4.096E+00  1.278E-01
   1   13    5     8     2    1.4290E+02 -1.2514E+00   1.4415E+02  0.000E+00  0.000E+00  0.000E+00  1.01840E+03  2.771E+00  4.017E+01  4.094E+00 -1.019E-01
   1   13    4     8     3    1.4415E+02 -2.9638E+00   1.4711E+02  0.000E+00  0.000E+00  0.000E+00  1.01216E+03  2.786E+00  4.039E+01  4.116E+00 -2.400E-01
   1   13    3     8     4    1.4711E+02 -3.0486E+00   1.5016E+02  0.000E+00  0.000E+00  0.000E+00  1.00593E+03  2.807E+00  4.070E+01  4.148E+00 -2.450E-01
   1   13    2     8     5    1.5016E+02 -1.1111E+00   1.5127E+02  0.000E+00  0.000E+00  0.000E+00  9.99697E+02  2.822E+00  4.092E+01  4.170E+00 -8.883E-02
   1   13    1     8     6    1.5127E+02  4.1357E-01   1.5086E+02  0.000E+00  0.000E+00  0.000E+00  9.94699E+02  2.824E+00  4.095E+01  2.504E+00  5.506E-02



1
              HEAD IN LAYER   1 AT END OF TIME STEP  47 IN STRESS PERIOD    2
  ---------------------------------------------------------------------------

           1       2       3       4       5       6       7       8       9      10
 ...................................................................................
   1  1092.86 1089.45 6999.00 6999.00 6999.00 6999.00 6999.00 6999.00 6999.00 6999.00
   2  1089.88 1086.78 1081.53 6999.00 6999.00 1071.50 1070.78 1070.39 6999.00 6999.00
   3  6999.00 1079.44 1077.63 1073.66 1072.51 1070.57 1069.11 1068.35 6999.00 6999.00
   4  1068.53 1070.48 1070.21 1067.06 1065.44 1063.61 1063.85 1065.90 1065.91 6999.00
   5  1064.50 1063.79 1062.89 1061.48 1060.79 1060.74 1060.19 1062.00 1065.63 1068.06
   6  1059.59 1058.24 1057.15 1056.40 1056.26 1056.88 1057.19 1059.08 1061.88 1065.51
   7  1055.99 1052.98 1051.72 1051.18 1051.24 1051.85 1053.19 1055.45 1056.44 6999.00
   8  6999.00 1046.28 1045.72 1045.53 1045.74 1046.44 1047.82 1049.82 1050.33 6999.00
   9  6999.00 1039.03 1039.11 1039.47 1040.03 1041.04 1041.63 1042.82 1043.94 6999.00
  10  6999.00 1031.07 1031.77 1033.25 1034.31 1035.43 1036.50 1037.58 1039.19 1041.29
  11  6999.00 1021.42 1023.09 1026.83 1028.70 1030.48 1032.08 1033.53 1035.64 6999.00
  12  1001.17 1009.24 1014.51 1019.62 1023.13 1026.18 1028.57 1030.37 1034.27 6999.00
  13   994.53  999.96 1006.67 1012.88 1018.70 1024.26 1029.09 1034.10 1036.13 6999.00
  14  6999.00 1004.01 1008.95 1013.70 1018.89 1024.03 1029.48 1035.09 1039.34 6999.00
  15  6999.00 6999.00 1011.91 1015.09 1019.12 1022.38 6999.00 6999.00 6999.00 6999.00
1
  VOLUMETRIC BUDGET FOR ENTIRE MODEL AT END OF TIME STEP   47, STRESS PERIOD   2
  ------------------------------------------------------------------------------

     CUMULATIVE VOLUMES      L**3       RATES FOR THIS TIME STEP      L**3/T
     ------------------                 ------------------------

           IN:                                      IN:
           ---                                      ---
             STORAGE = 30236489728.0000               STORAGE =           0.0000
       CONSTANT HEAD =           0.0000         CONSTANT HEAD =           0.0000
               WELLS =           0.0000                 WELLS =           0.0000
                  ET =           0.0000                    ET =           0.0000
     HEAD DEP BOUNDS =   599340672.0000       HEAD DEP BOUNDS =           0.2153
            RECHARGE =  4950738432.0000              RECHARGE =           1.7937
      STREAM LEAKAGE =214592503808.0000        STREAM LEAKAGE =          43.4288

            TOTAL IN =250379075584.0000              TOTAL IN =          45.4378

          OUT:                                     OUT:
          ----                                     ----
             STORAGE = 30222589952.0000               STORAGE =           0.1565
       CONSTANT HEAD =           0.0000         CONSTANT HEAD =           0.0000
               WELLS =157788012544.0000                 WELLS =           0.0000
                  ET = 54192103424.0000                    ET =          35.7458
     HEAD DEP BOUNDS =   637648000.0000       HEAD DEP BOUNDS =           0.2483
            RECHARGE =           0.0000              RECHARGE =           0.0000
      STREAM LEAKAGE =  7539683328.0000        STREAM LEAKAGE =           9.2860

           TOTAL OUT =250380025856.0000             TOTAL OUT =          45.4366

            IN - OUT =     -950272.0000              IN - OUT =       1.2779E-03

 PERCENT DISCREPANCY =          -0.00     PERCENT DISCREPANCY =           0.00






         TIME SUMMARY AT END OF TIME STEP   47 IN STRESS PERIOD    2
                    SECONDS     MINUTES      HOURS       DAYS        YEARS
                    -----------------------------------------------------------
   TIME STEP LENGTH 1.08697E+08 1.81162E+06  30194.      1258.1      3.4444    
 STRESS PERIOD TIME 1.18211E+09 1.97019E+07 3.28365E+05  13682.      37.459    
         TOTAL TIME 2.75999E+09 4.59999E+07 7.66665E+05  31944.      87.459    
1
 
 SOLVING FOR HEAD 
     7 ITERATIONS FOR TIME STEP  48 IN STRESS PERIOD    2

 MAXIMUM HEAD CHANGE FOR EACH ITERATION:

    HEAD CHANGE   HEAD CHANGE   HEAD CHANGE   HEAD CHANGE   HEAD CHANGE
  LAYER,ROW,COL LAYER,ROW,COL LAYER,ROW,COL LAYER,ROW,COL LAYER,ROW,COL
 ----------------------------------------------------------------------
     0.1242        0.4053E-01    0.1476E-01    0.4728E-02    0.1554E-02
  (  1, 10, 10) (  1,  6,  1) (  1,  6,  1) (  1,  6,  1) (  1, 10, 10)
     0.1010E-02    0.1988E-03
  (  1, 10, 10) (  1,  2,  3)


 OUTPUT CONTROL FOR STRESS PERIOD    2   TIME STEP   48
    PRINT BUDGET
    PRINT HEAD FOR ALL LAYERS
    SAVE BUDGET
 UBUDSV SAVING "              ET" ON UNIT 59 AT TIME STEP 48, STRESS PERIOD    2

  HEAD DEP BOUNDS   PERIOD    2   STEP  48
 BOUNDARY      1   LAYER   1   ROW    13   COL     1   RATE   -0.248312    
 BOUNDARY      2   LAYER   1   ROW    14   COL     9   RATE    0.215256    



 STREAM LISTING     PERIOD      2   STEP       48

 LAYER ROW COL. STREAM  RCH.  FLOW INTO     FLOW TO   FLOW OUT OF   OVRLND.     DIRECT     STREAM       STREAM     STREAM     STREAM   STREAMBED  STREAMBED
                SEG.NO.  NO.  STRM. RCH.    AQUIFER    STRM. RCH.    RUNOFF     PRECIP       ET          HEAD       DEPTH      WIDTH   CONDCTNC.   GRADIENT

   1    1    1     1     1    2.5000E+01  7.9390E-01   2.4206E+01  0.000E+00  0.000E+00  0.000E+00  1.09422E+03  1.174E+00  1.298E+01  5.842E-01  4.530E-01
   1    2    2     1     2    2.4206E+01  2.1521E+00   2.2054E+01  0.000E+00  0.000E+00  0.000E+00  1.08921E+03  1.152E+00  1.268E+01  8.877E-01  8.081E-01
   1    3    3     1     3    2.2054E+01  2.9901E+00   1.9064E+01  0.000E+00  0.000E+00  0.000E+00  1.08353E+03  1.110E+00  1.213E+01  7.276E-01  1.370E+00
   1    3    4     1     4    1.9064E+01  2.5529E+00   1.6511E+01  0.000E+00  0.000E+00  0.000E+00  1.07847E+03  1.063E+00  1.132E+01  6.283E-01  1.354E+00
   1    4    5     2     1    6.5111E+00  2.7054E+00   3.8057E+00  0.000E+00  0.000E+00  0.000E+00  1.07240E+03  4.684E-01  1.200E+01  7.800E-01  1.156E+00
   1    5    6     2     2    3.8057E+00  1.9951E+00   1.8105E+00  0.000E+00  0.000E+00  0.000E+00  1.06683E+03  3.252E-01  1.200E+01  6.000E-01  1.108E+00
   1    6    6     2     3    1.8105E+00  1.8105E+00   0.0000E+00  0.000E+00  0.000E+00  0.000E+00  1.06185E+03  5.623E-02  1.200E+01  6.000E-01  1.019E+00
   1    7    6     2     4    0.0000E+00  0.0000E+00   0.0000E+00  0.000E+00  0.000E+00  0.000E+00  1.05708E+03  0.000E+00  1.200E+01  6.000E-01  1.000E+00
   1    8    6     2     5    0.0000E+00  0.0000E+00   0.0000E+00  0.000E+00  0.000E+00  0.000E+00  1.05236E+03  0.000E+00  1.200E+01  6.000E-01  1.000E+00
   1    3    5     3     1    1.0000E+01  2.1928E+00   7.8072E+00  0.000E+00  0.000E+00  0.000E+00  1.07555E+03  1.909E+00  9.636E+00  7.227E-01  1.517E+00
   1    3    6     3     2    7.8072E+00  1.3777E+00   6.4296E+00  0.000E+00  0.000E+00  0.000E+00  1.07264E+03  1.727E+00  8.909E+00  6.682E-01  1.031E+00
   1    3    7     3     3    6.4296E+00  4.2280E-01   6.0068E+00  0.000E+00  0.000E+00  0.000E+00  1.06987E+03  1.555E+00  8.218E+00  5.547E-01  3.811E-01
   1    4    8     3     4    6.0068E+00  6.1155E-01   5.3952E+00  0.000E+00  0.000E+00  0.000E+00  1.06682E+03  1.364E+00  7.455E+00  6.709E-01  4.558E-01
   1    5    8     3     5    5.3952E+00  8.0452E-01   4.5907E+00  0.000E+00  0.000E+00  0.000E+00  1.06362E+03  1.164E+00  6.655E+00  4.991E-01  8.060E-01
   1    6    8     3     6    4.5907E+00  4.5950E-01   4.1312E+00  0.000E+00  0.000E+00  0.000E+00  1.06158E+03  1.036E+00  6.145E+00  1.844E-01  1.246E+00
   1    5   10     4     1    1.0000E+01  9.0525E-01   9.0947E+00  0.000E+00  0.000E+00  0.000E+00  1.07835E+03  6.210E-01  1.000E+01  2.500E-01  1.207E+00
   1    5    9     4     2    9.0947E+00  1.7835E+00   7.3113E+00  0.000E+00  0.000E+00  0.000E+00  1.07148E+03  5.670E-01  1.000E+01  5.000E-01  1.189E+00
   1    6    8     4     3    7.3113E+00  1.2257E+00   6.0855E+00  0.000E+00  0.000E+00  0.000E+00  1.06368E+03  5.021E-01  1.000E+01  3.500E-01  1.167E+00
   1    6    8     5     1    1.0217E+01 -2.5309E-01   1.0470E+01  0.000E+00  0.000E+00  0.000E+00  1.05868E+03  6.796E-01  1.544E+01  6.175E-01 -1.366E-01
   1    7    7     5     2    1.0470E+01  7.4479E-01   9.7250E+00  0.000E+00  0.000E+00  0.000E+00  1.05417E+03  6.739E-01  1.522E+01  7.608E-01  3.263E-01
   1    8    7     5     3    9.7250E+00  1.0450E+00   8.6801E+00  0.000E+00  0.000E+00  0.000E+00  1.04990E+03  6.524E-01  1.439E+01  5.037E-01  6.915E-01
   1    8    6     5     4    8.6801E+00  1.5152E-01   8.5285E+00  0.000E+00  0.000E+00  0.000E+00  1.04689E+03  6.372E-01  1.382E+01  3.456E-01  1.462E-01
   1    9    6     6     1    8.5285E+00  1.3755E+00   7.1530E+00  0.000E+00  0.000E+00  0.000E+00  1.04334E+03  6.090E-01  1.200E+01  6.000E-01  7.642E-01
   1   10    7     6     2    7.1530E+00  1.3314E+00   5.8216E+00  0.000E+00  0.000E+00  0.000E+00  1.03873E+03  5.435E-01  1.200E+01  6.000E-01  7.397E-01
   1   11    7     6     3    5.8216E+00  1.2166E+00   4.6051E+00  0.000E+00  0.000E+00  0.000E+00  1.03411E+03  4.767E-01  1.200E+01  6.000E-01  6.759E-01
   1   12    7     6     4    4.6051E+00  5.6880E-01   4.0363E+00  0.000E+00  0.000E+00  0.000E+00  1.02952E+03  4.259E-01  1.200E+01  6.000E-01  3.160E-01
   1   13    7     6     5    4.0363E+00 -6.6134E-01   4.6976E+00  0.000E+00  0.000E+00  0.000E+00  1.02634E+03  4.286E-01  1.200E+01  2.400E-01 -9.185E-01
   1   14    9     7     1    1.5000E+02  2.9561E+00   1.4704E+02  0.000E+00  0.000E+00  0.000E+00  1.03986E+03  2.283E+00  5.528E+01  5.591E+00  1.762E-01
   1   13    8     7     2    1.4704E+02  4.0552E+00   1.4299E+02  0.000E+00  0.000E+00  0.000E+00  1.03476E+03  2.265E+00  5.519E+01  6.140E+00  2.202E-01
   1   13    7     7     3    1.4299E+02  3.1828E+00   1.3981E+02  0.000E+00  0.000E+00  0.000E+00  1.02966E+03  2.245E+00  5.510E+01  5.572E+00  1.904E-01
   1   13    6     8     1    1.4450E+02  1.5693E+00   1.4293E+02  0.000E+00  0.000E+00  0.000E+00  1.02465E+03  2.772E+00  4.019E+01  4.096E+00  1.277E-01
   1   13    5     8     2    1.4293E+02 -1.2530E+00   1.4419E+02  0.000E+00  0.000E+00  0.000E+00  1.01840E+03  2.771E+00  4.018E+01  4.094E+00 -1.020E-01
   1   13    4     8     3    1.4419E+02 -2.9652E+00   1.4715E+02  0.000E+00  0.000E+00  0.000E+00  1.01216E+03  2.786E+00  4.040E+01  4.117E+00 -2.401E-01
   1   13    3     8     4    1.4715E+02 -3.0494E+00   1.5020E+02  0.000E+00  0.000E+00  0.000E+00  1.00593E+03  2.807E+00  4.071E+01  4.148E+00 -2.450E-01
   1   13    2     8     5    1.5020E+02 -1.1117E+00   1.5131E+02  0.000E+00  0.000E+00  0.000E+00  9.99697E+02  2.822E+00  4.092E+01  4.170E+00 -8.887E-02
   1   13    1     8     6    1.5131E+02  4.1338E-01   1.5090E+02  0.000E+00  0.000E+00  0.000E+00  9.94700E+02  2.825E+00  4.096E+01  2.504E+00  5.503E-02



1
              HEAD IN LAYER   1 AT END OF TIME STEP  48 IN STRESS PERIOD    2
  ---------------------------------------------------------------------------

           1       2       3       4       5       6       7       8       9      10
 ...................................................................................
   1  1092.86 1089.46 6999.00 6999.00 6999.00 6999.00 6999.00 6999.00 6999.00 6999.00
   2  1089.89 1086.79 1081.55 6999.00 6999.00 1071.51 1070.80 1070.41 6999.00 6999.00
   3  6999.00 1079.47 1077.66 1073.68 1072.51 1070.57 1069.11 1068.36 6999.00 6999.00
   4  1068.67 1070.55 1070.25 1067.08 1065.46 1063.62 1063.86 1065.91 1065.92 6999.00
   5  1064.65 1063.88 1062.94 1061.50 1060.81 1060.75 1060.20 1062.01 1065.64 1068.08
   6  1059.74 1058.33 1057.19 1056.42 1056.28 1056.89 1057.20 1059.09 1061.89 1065.53
   7  1056.15 1053.06 1051.76 1051.20 1051.26 1051.86 1053.19 1055.46 1056.46 6999.00
   8  6999.00 1046.34 1045.76 1045.54 1045.75 1046.45 1047.83 1049.84 1050.37 6999.00
   9  6999.00 1039.07 1039.14 1039.48 1040.03 1041.04 1041.63 1042.84 1044.00 6999.00
  10  6999.00 1031.09 1031.79 1033.26 1034.32 1035.43 1036.51 1037.61 1039.27 1041.45
  11  6999.00 1021.43 1023.10 1026.84 1028.70 1030.48 1032.09 1033.55 1035.68 6999.00
  12  1001.17 1009.24 1014.51 1019.62 1023.14 1026.18 1028.57 1030.37 1034.28 6999.00
  13   994.53  999.96 1006.67 1012.88 1018.70 1024.26 1029.09 1034.10 1036.13 6999.00
  14  6999.00 1004.01 1008.95 1013.70 1018.89 1024.03 1029.48 1035.09 1039.34 6999.00
  15  6999.00 6999.00 1011.92 1015.10 1019.12 1022.39 6999.00 6999.00 6999.00 6999.00
1
  VOLUMETRIC BUDGET FOR ENTIRE MODEL AT END OF TIME STEP   48, STRESS PERIOD   2
  ------------------------------------------------------------------------------

     CUMULATIVE VOLUMES      L**3       RATES FOR THIS TIME STEP      L**3/T
     ------------------                 ------------------------

           IN:                                      IN:
           ---                                      ---
             STORAGE = 30236489728.0000               STORAGE =           0.0000
       CONSTANT HEAD =           0.0000         CONSTANT HEAD =           0.0000
               WELLS =           0.0000                 WELLS =           0.0000
                  ET =           0.0000                    ET =           0.0000
     HEAD DEP BOUNDS =   625078208.0000       HEAD DEP BOUNDS =           0.2153
            RECHARGE =  5165211648.0000              RECHARGE =           1.7937
      STREAM LEAKAGE =219780939776.0000        STREAM LEAKAGE =          43.3936

            TOTAL IN =255807733760.0000              TOTAL IN =          45.4026

          OUT:                                     OUT:
          ----                                     ----
             STORAGE = 30229972992.0000               STORAGE =       6.1754E-02
       CONSTANT HEAD =           0.0000         CONSTANT HEAD =           0.0000
               WELLS =157788012544.0000                 WELLS =           0.0000
                  ET = 58472452096.0000                    ET =          35.7987
     HEAD DEP BOUNDS =   667337920.0000       HEAD DEP BOUNDS =           0.2483
            RECHARGE =           0.0000              RECHARGE =           0.0000
      STREAM LEAKAGE =  8650908672.0000        STREAM LEAKAGE =           9.2937

           TOTAL OUT =255808684032.0000             TOTAL OUT =          45.4026

            IN - OUT =     -950272.0000              IN - OUT =       3.4332E-05

 PERCENT DISCREPANCY =          -0.00     PERCENT DISCREPANCY =           0.00






         TIME SUMMARY AT END OF TIME STEP   48 IN STRESS PERIOD    2
                    SECONDS     MINUTES      HOURS       DAYS        YEARS
                    -----------------------------------------------------------
   TIME STEP LENGTH 1.19567E+08 1.99278E+06  33213.      1383.9      3.7889    
 STRESS PERIOD TIME 1.30168E+09 2.16947E+07 3.61578E+05  15066.      41.248    
         TOTAL TIME 2.87956E+09 4.79927E+07 7.99878E+05  33328.      91.248    
1
 
 SOLVING FOR HEAD 
     5 ITERATIONS FOR TIME STEP  49 IN STRESS PERIOD    2

 MAXIMUM HEAD CHANGE FOR EACH ITERATION:

    HEAD CHANGE   HEAD CHANGE   HEAD CHANGE   HEAD CHANGE   HEAD CHANGE
  LAYER,ROW,COL LAYER,ROW,COL LAYER,ROW,COL LAYER,ROW,COL LAYER,ROW,COL
 ----------------------------------------------------------------------
     0.5840E-01    0.1731E-01    0.6401E-02    0.2065E-02    0.7413E-03
  (  1, 10, 10) (  1,  6,  1) (  1,  6,  1) (  1,  6,  1) (  1, 10, 10)


 OUTPUT CONTROL FOR STRESS PERIOD    2   TIME STEP   49
    PRINT BUDGET
    PRINT HEAD FOR ALL LAYERS
    SAVE BUDGET
 UBUDSV SAVING "              ET" ON UNIT 59 AT TIME STEP 49, STRESS PERIOD    2

  HEAD DEP BOUNDS   PERIOD    2   STEP  49
 BOUNDARY      1   LAYER   1   ROW    13   COL     1   RATE   -0.248318    
 BOUNDARY      2   LAYER   1   ROW    14   COL     9   RATE    0.215256    



 STREAM LISTING     PERIOD      2   STEP       49

 LAYER ROW COL. STREAM  RCH.  FLOW INTO     FLOW TO   FLOW OUT OF   OVRLND.     DIRECT     STREAM       STREAM     STREAM     STREAM   STREAMBED  STREAMBED
                SEG.NO.  NO.  STRM. RCH.    AQUIFER    STRM. RCH.    RUNOFF     PRECIP       ET          HEAD       DEPTH      WIDTH   CONDCTNC.   GRADIENT

   1    1    1     1     1    2.5000E+01  7.9339E-01   2.4207E+01  0.000E+00  0.000E+00  0.000E+00  1.09422E+03  1.174E+00  1.298E+01  5.842E-01  4.527E-01
   1    2    2     1     2    2.4207E+01  2.1491E+00   2.2057E+01  0.000E+00  0.000E+00  0.000E+00  1.08921E+03  1.152E+00  1.268E+01  8.878E-01  8.070E-01
   1    3    3     1     3    2.2057E+01  2.9903E+00   1.9067E+01  0.000E+00  0.000E+00  0.000E+00  1.08353E+03  1.110E+00  1.213E+01  7.276E-01  1.370E+00
   1    3    4     1     4    1.9067E+01  2.5531E+00   1.6514E+01  0.000E+00  0.000E+00  0.000E+00  1.07847E+03  1.063E+00  1.132E+01  6.283E-01  1.354E+00
   1    4    5     2     1    6.5141E+00  2.7055E+00   3.8086E+00  0.000E+00  0.000E+00  0.000E+00  1.07240E+03  4.686E-01  1.200E+01  7.800E-01  1.156E+00
   1    5    6     2     2    3.8086E+00  1.9953E+00   1.8133E+00  0.000E+00  0.000E+00  0.000E+00  1.06683E+03  3.254E-01  1.200E+01  6.000E-01  1.108E+00
   1    6    6     2     3    1.8133E+00  1.8133E+00   0.0000E+00  0.000E+00  0.000E+00  0.000E+00  1.06185E+03  5.628E-02  1.200E+01  6.000E-01  1.019E+00
   1    7    6     2     4    0.0000E+00  0.0000E+00   0.0000E+00  0.000E+00  0.000E+00  0.000E+00  1.05708E+03  0.000E+00  1.200E+01  6.000E-01  1.000E+00
   1    8    6     2     5    0.0000E+00  0.0000E+00   0.0000E+00  0.000E+00  0.000E+00  0.000E+00  1.05236E+03  0.000E+00  1.200E+01  6.000E-01  1.000E+00
   1    3    5     3     1    1.0000E+01  2.1909E+00   7.8091E+00  0.000E+00  0.000E+00  0.000E+00  1.07555E+03  1.909E+00  9.636E+00  7.227E-01  1.516E+00
   1    3    6     3     2    7.8091E+00  1.3768E+00   6.4323E+00  0.000E+00  0.000E+00  0.000E+00  1.07264E+03  1.727E+00  8.909E+00  6.682E-01  1.030E+00
   1    3    7     3     3    6.4323E+00  4.2210E-01   6.0102E+00  0.000E+00  0.000E+00  0.000E+00  1.06987E+03  1.555E+00  8.218E+00  5.547E-01  3.805E-01
   1    4    8     3     4    6.0102E+00  6.1078E-01   5.3995E+00  0.000E+00  0.000E+00  0.000E+00  1.06682E+03  1.364E+00  7.455E+00  6.709E-01  4.552E-01
   1    5    8     3     5    5.3995E+00  8.0330E-01   4.5962E+00  0.000E+00  0.000E+00  0.000E+00  1.06362E+03  1.164E+00  6.655E+00  4.991E-01  8.048E-01
   1    6    8     3     6    4.5962E+00  4.5906E-01   4.1371E+00  0.000E+00  0.000E+00  0.000E+00  1.06158E+03  1.036E+00  6.145E+00  1.844E-01  1.245E+00
   1    5   10     4     1    1.0000E+01  9.0525E-01   9.0947E+00  0.000E+00  0.000E+00  0.000E+00  1.07835E+03  6.210E-01  1.000E+01  2.500E-01  1.207E+00
   1    5    9     4     2    9.0947E+00  1.7835E+00   7.3113E+00  0.000E+00  0.000E+00  0.000E+00  1.07148E+03  5.670E-01  1.000E+01  5.000E-01  1.189E+00
   1    6    8     4     3    7.3113E+00  1.2257E+00   6.0855E+00  0.000E+00  0.000E+00  0.000E+00  1.06368E+03  5.021E-01  1.000E+01  3.500E-01  1.167E+00
   1    6    8     5     1    1.0223E+01 -2.5454E-01   1.0477E+01  0.000E+00  0.000E+00  0.000E+00  1.05868E+03  6.797E-01  1.544E+01  6.177E-01 -1.374E-01
   1    7    7     5     2    1.0477E+01  7.4314E-01   9.7341E+00  0.000E+00  0.000E+00  0.000E+00  1.05417E+03  6.741E-01  1.522E+01  7.612E-01  3.254E-01
   1    8    7     5     3    9.7341E+00  1.0443E+00   8.6898E+00  0.000E+00  0.000E+00  0.000E+00  1.04990E+03  6.526E-01  1.440E+01  5.040E-01  6.906E-01
   1    8    6     5     4    8.6898E+00  1.5064E-01   8.5392E+00  0.000E+00  0.000E+00  0.000E+00  1.04689E+03  6.374E-01  1.383E+01  3.458E-01  1.452E-01
   1    9    6     6     1    8.5392E+00  1.3743E+00   7.1648E+00  0.000E+00  0.000E+00  0.000E+00  1.04334E+03  6.094E-01  1.200E+01  6.000E-01  7.635E-01
   1   10    7     6     2    7.1648E+00  1.3304E+00   5.8344E+00  0.000E+00  0.000E+00  0.000E+00  1.03873E+03  5.441E-01  1.200E+01  6.000E-01  7.391E-01
   1   11    7     6     3    5.8344E+00  1.2160E+00   4.6184E+00  0.000E+00  0.000E+00  0.000E+00  1.03411E+03  4.774E-01  1.200E+01  6.000E-01  6.756E-01
   1   12    7     6     4    4.6184E+00  5.6871E-01   4.0497E+00  0.000E+00  0.000E+00  0.000E+00  1.02952E+03  4.266E-01  1.200E+01  6.000E-01  3.160E-01
   1   13    7     6     5    4.0497E+00 -6.6119E-01   4.7109E+00  0.000E+00  0.000E+00  0.000E+00  1.02634E+03  4.293E-01  1.200E+01  2.400E-01 -9.183E-01
   1   14    9     7     1    1.5000E+02  2.9561E+00   1.4704E+02  0.000E+00  0.000E+00  0.000E+00  1.03986E+03  2.283E+00  5.528E+01  5.591E+00  1.762E-01
   1   13    8     7     2    1.4704E+02  4.0552E+00   1.4299E+02  0.000E+00  0.000E+00  0.000E+00  1.03476E+03  2.265E+00  5.519E+01  6.140E+00  2.202E-01
   1   13    7     7     3    1.4299E+02  3.1824E+00   1.3981E+02  0.000E+00  0.000E+00  0.000E+00  1.02966E+03  2.245E+00  5.510E+01  5.572E+00  1.904E-01
   1   13    6     8     1    1.4452E+02  1.5689E+00   1.4295E+02  0.000E+00  0.000E+00  0.000E+00  1.02465E+03  2.772E+00  4.020E+01  4.096E+00  1.277E-01
   1   13    5     8     2    1.4295E+02 -1.2533E+00   1.4420E+02  0.000E+00  0.000E+00  0.000E+00  1.01840E+03  2.771E+00  4.018E+01  4.094E+00 -1.020E-01
   1   13    4     8     3    1.4420E+02 -2.9656E+00   1.4717E+02  0.000E+00  0.000E+00  0.000E+00  1.01216E+03  2.786E+00  4.040E+01  4.117E+00 -2.401E-01
   1   13    3     8     4    1.4717E+02 -3.0500E+00   1.5022E+02  0.000E+00  0.000E+00  0.000E+00  1.00593E+03  2.808E+00  4.071E+01  4.149E+00 -2.451E-01
   1   13    2     8     5    1.5022E+02 -1.1118E+00   1.5133E+02  0.000E+00  0.000E+00  0.000E+00  9.99697E+02  2.822E+00  4.092E+01  4.170E+00 -8.887E-02
   1   13    1     8     6    1.5133E+02  4.1328E-01   1.5092E+02  0.000E+00  0.000E+00  0.000E+00  9.94700E+02  2.825E+00  4.096E+01  2.504E+00  5.501E-02



1
              HEAD IN LAYER   1 AT END OF TIME STEP  49 IN STRESS PERIOD    2
  ---------------------------------------------------------------------------

           1       2       3       4       5       6       7       8       9      10
 ...................................................................................
   1  1092.86 1089.46 6999.00 6999.00 6999.00 6999.00 6999.00 6999.00 6999.00 6999.00
   2  1089.90 1086.79 1081.55 6999.00 6999.00 1071.52 1070.80 1070.42 6999.00 6999.00
   3  6999.00 1079.49 1077.67 1073.69 1072.51 1070.58 1069.11 1068.36 6999.00 6999.00
   4  1068.73 1070.58 1070.26 1067.09 1065.47 1063.62 1063.86 1065.91 1065.93 6999.00
   5  1064.71 1063.92 1062.96 1061.51 1060.81 1060.76 1060.21 1062.01 1065.65 1068.08
   6  1059.81 1058.37 1057.21 1056.43 1056.29 1056.90 1057.20 1059.09 1061.89 1065.54
   7  1056.21 1053.10 1051.78 1051.21 1051.26 1051.86 1053.20 1055.46 1056.47 6999.00
   8  6999.00 1046.36 1045.77 1045.55 1045.75 1046.45 1047.83 1049.84 1050.39 6999.00
   9  6999.00 1039.09 1039.14 1039.49 1040.04 1041.05 1041.64 1042.85 1044.03 6999.00
  10  6999.00 1031.10 1031.79 1033.26 1034.32 1035.44 1036.51 1037.62 1039.30 1041.53
  11  6999.00 1021.44 1023.10 1026.84 1028.70 1030.49 1032.09 1033.55 1035.69 6999.00
  12  1001.17 1009.24 1014.52 1019.62 1023.14 1026.18 1028.57 1030.37 1034.29 6999.00
  13   994.53  999.96 1006.67 1012.88 1018.70 1024.26 1029.09 1034.10 1036.13 6999.00
  14  6999.00 1004.01 1008.95 1013.70 1018.89 1024.03 1029.48 1035.09 1039.34 6999.00
  15  6999.00 6999.00 1011.92 1015.10 1019.13 1022.39 6999.00 6999.00 6999.00 6999.00
1
  VOLUMETRIC BUDGET FOR ENTIRE MODEL AT END OF TIME STEP   49, STRESS PERIOD   2
  ------------------------------------------------------------------------------

     CUMULATIVE VOLUMES      L**3       RATES FOR THIS TIME STEP      L**3/T
     ------------------                 ------------------------

           IN:                                      IN:
           ---                                      ---
             STORAGE = 30236489728.0000               STORAGE =           0.0000
       CONSTANT HEAD =           0.0000         CONSTANT HEAD =           0.0000
               WELLS =           0.0000                 WELLS =           0.0000
                  ET =           0.0000                    ET =           0.0000
     HEAD DEP BOUNDS =   653389504.0000       HEAD DEP BOUNDS =           0.2153
            RECHARGE =  5401132544.0000              RECHARGE =           1.7937
      STREAM LEAKAGE =225486520320.0000        STREAM LEAKAGE =          43.3806

            TOTAL IN =261777539072.0000              TOTAL IN =          45.3896

          OUT:                                     OUT:
          ----                                     ----
             STORAGE = 30233024512.0000               STORAGE =       2.3199E-02
       CONSTANT HEAD =           0.0000         CONSTANT HEAD =           0.0000
               WELLS =157788012544.0000                 WELLS =           0.0000
                  ET = 63183618048.0000                    ET =          35.8199
     HEAD DEP BOUNDS =   699997696.0000       HEAD DEP BOUNDS =           0.2483
            RECHARGE =           0.0000              RECHARGE =           0.0000
      STREAM LEAKAGE =  9873600512.0000        STREAM LEAKAGE =           9.2964

           TOTAL OUT =261778243584.0000             TOTAL OUT =          45.3878

            IN - OUT =     -704512.0000              IN - OUT =       1.8616E-03

 PERCENT DISCREPANCY =          -0.00     PERCENT DISCREPANCY =           0.00






         TIME SUMMARY AT END OF TIME STEP   49 IN STRESS PERIOD    2
                    SECONDS     MINUTES      HOURS       DAYS        YEARS
                    -----------------------------------------------------------
   TIME STEP LENGTH 1.31524E+08 2.19206E+06  36534.      1522.3      4.1677    
 STRESS PERIOD TIME 1.43320E+09 2.38867E+07 3.98112E+05  16588.      45.415    
         TOTAL TIME 3.01108E+09 5.01847E+07 8.36412E+05  34851.      95.415    
1
 
 SOLVING FOR HEAD 
     5 ITERATIONS FOR TIME STEP  50 IN STRESS PERIOD    2

 MAXIMUM HEAD CHANGE FOR EACH ITERATION:

    HEAD CHANGE   HEAD CHANGE   HEAD CHANGE   HEAD CHANGE   HEAD CHANGE
  LAYER,ROW,COL LAYER,ROW,COL LAYER,ROW,COL LAYER,ROW,COL LAYER,ROW,COL
 ----------------------------------------------------------------------
     0.2592E-01    0.6964E-02    0.2631E-02    0.8614E-03    0.3386E-03
  (  1, 10, 10) (  1,  6,  1) (  1,  6,  1) (  1,  6,  1) (  1, 10, 10)


 OUTPUT CONTROL FOR STRESS PERIOD    2   TIME STEP   50
    PRINT BUDGET
    PRINT HEAD FOR ALL LAYERS
    SAVE BUDGET
 UBUDSV SAVING "              ET" ON UNIT 59 AT TIME STEP 50, STRESS PERIOD    2

  HEAD DEP BOUNDS   PERIOD    2   STEP  50
 BOUNDARY      1   LAYER   1   ROW    13   COL     1   RATE   -0.248319    
 BOUNDARY      2   LAYER   1   ROW    14   COL     9   RATE    0.215257    



 STREAM LISTING     PERIOD      2   STEP       50

 LAYER ROW COL. STREAM  RCH.  FLOW INTO     FLOW TO   FLOW OUT OF   OVRLND.     DIRECT     STREAM       STREAM     STREAM     STREAM   STREAMBED  STREAMBED
                SEG.NO.  NO.  STRM. RCH.    AQUIFER    STRM. RCH.    RUNOFF     PRECIP       ET          HEAD       DEPTH      WIDTH   CONDCTNC.   GRADIENT

   1    1    1     1     1    2.5000E+01  7.9321E-01   2.4207E+01  0.000E+00  0.000E+00  0.000E+00  1.09422E+03  1.174E+00  1.298E+01  5.842E-01  4.526E-01
   1    2    2     1     2    2.4207E+01  2.1480E+00   2.2059E+01  0.000E+00  0.000E+00  0.000E+00  1.08921E+03  1.152E+00  1.268E+01  8.878E-01  8.065E-01
   1    3    3     1     3    2.2059E+01  2.9904E+00   1.9068E+01  0.000E+00  0.000E+00  0.000E+00  1.08353E+03  1.110E+00  1.213E+01  7.276E-01  1.370E+00
   1    3    4     1     4    1.9068E+01  2.5532E+00   1.6515E+01  0.000E+00  0.000E+00  0.000E+00  1.07847E+03  1.063E+00  1.132E+01  6.284E-01  1.354E+00
   1    4    5     2     1    6.5152E+00  2.7056E+00   3.8096E+00  0.000E+00  0.000E+00  0.000E+00  1.07240E+03  4.687E-01  1.200E+01  7.800E-01  1.156E+00
   1    5    6     2     2    3.8096E+00  1.9953E+00   1.8143E+00  0.000E+00  0.000E+00  0.000E+00  1.06683E+03  3.255E-01  1.200E+01  6.000E-01  1.108E+00
   1    6    6     2     3    1.8143E+00  1.8143E+00   0.0000E+00  0.000E+00  0.000E+00  0.000E+00  1.06185E+03  5.631E-02  1.200E+01  6.000E-01  1.019E+00
   1    7    6     2     4    0.0000E+00  0.0000E+00   0.0000E+00  0.000E+00  0.000E+00  0.000E+00  1.05708E+03  0.000E+00  1.200E+01  6.000E-01  1.000E+00
   1    8    6     2     5    0.0000E+00  0.0000E+00   0.0000E+00  0.000E+00  0.000E+00  0.000E+00  1.05236E+03  0.000E+00  1.200E+01  6.000E-01  1.000E+00
   1    3    5     3     1    1.0000E+01  2.1902E+00   7.8098E+00  0.000E+00  0.000E+00  0.000E+00  1.07555E+03  1.909E+00  9.636E+00  7.227E-01  1.515E+00
   1    3    6     3     2    7.8098E+00  1.3765E+00   6.4334E+00  0.000E+00  0.000E+00  0.000E+00  1.07264E+03  1.727E+00  8.909E+00  6.682E-01  1.030E+00
   1    3    7     3     3    6.4334E+00  4.2186E-01   6.0115E+00  0.000E+00  0.000E+00  0.000E+00  1.06987E+03  1.555E+00  8.218E+00  5.547E-01  3.802E-01
   1    4    8     3     4    6.0115E+00  6.1051E-01   5.4010E+00  0.000E+00  0.000E+00  0.000E+00  1.06682E+03  1.364E+00  7.455E+00  6.709E-01  4.550E-01
   1    5    8     3     5    5.4010E+00  8.0285E-01   4.5982E+00  0.000E+00  0.000E+00  0.000E+00  1.06362E+03  1.164E+00  6.655E+00  4.991E-01  8.043E-01
   1    6    8     3     6    4.5982E+00  4.5890E-01   4.1393E+00  0.000E+00  0.000E+00  0.000E+00  1.06158E+03  1.036E+00  6.145E+00  1.844E-01  1.245E+00
   1    5   10     4     1    1.0000E+01  9.0525E-01   9.0947E+00  0.000E+00  0.000E+00  0.000E+00  1.07835E+03  6.210E-01  1.000E+01  2.500E-01  1.207E+00
   1    5    9     4     2    9.0947E+00  1.7835E+00   7.3113E+00  0.000E+00  0.000E+00  0.000E+00  1.07148E+03  5.670E-01  1.000E+01  5.000E-01  1.189E+00
   1    6    8     4     3    7.3113E+00  1.2257E+00   6.0855E+00  0.000E+00  0.000E+00  0.000E+00  1.06368E+03  5.021E-01  1.000E+01  3.500E-01  1.167E+00
   1    6    8     5     1    1.0225E+01 -2.5508E-01   1.0480E+01  0.000E+00  0.000E+00  0.000E+00  1.05868E+03  6.798E-01  1.545E+01  6.178E-01 -1.376E-01
   1    7    7     5     2    1.0480E+01  7.4251E-01   9.7374E+00  0.000E+00  0.000E+00  0.000E+00  1.05417E+03  6.742E-01  1.523E+01  7.613E-01  3.251E-01
   1    8    7     5     3    9.7374E+00  1.0440E+00   8.6934E+00  0.000E+00  0.000E+00  0.000E+00  1.04990E+03  6.527E-01  1.440E+01  5.042E-01  6.902E-01
   1    8    6     5     4    8.6934E+00  1.5029E-01   8.5431E+00  0.000E+00  0.000E+00  0.000E+00  1.04689E+03  6.376E-01  1.384E+01  3.459E-01  1.448E-01
   1    9    6     6     1    8.5431E+00  1.3739E+00   7.1692E+00  0.000E+00  0.000E+00  0.000E+00  1.04334E+03  6.097E-01  1.200E+01  6.000E-01  7.633E-01
   1   10    7     6     2    7.1692E+00  1.3300E+00   5.8393E+00  0.000E+00  0.000E+00  0.000E+00  1.03873E+03  5.443E-01  1.200E+01  6.000E-01  7.389E-01
   1   11    7     6     3    5.8393E+00  1.2158E+00   4.6235E+00  0.000E+00  0.000E+00  0.000E+00  1.03411E+03  4.777E-01  1.200E+01  6.000E-01  6.754E-01
   1   12    7     6     4    4.6235E+00  5.6868E-01   4.0548E+00  0.000E+00  0.000E+00  0.000E+00  1.02952E+03  4.270E-01  1.200E+01  6.000E-01  3.159E-01
   1   13    7     6     5    4.0548E+00 -6.6112E-01   4.7160E+00  0.000E+00  0.000E+00  0.000E+00  1.02634E+03  4.297E-01  1.200E+01  2.400E-01 -9.182E-01
   1   14    9     7     1    1.5000E+02  2.9562E+00   1.4704E+02  0.000E+00  0.000E+00  0.000E+00  1.03986E+03  2.283E+00  5.528E+01  5.591E+00  1.762E-01
   1   13    8     7     2    1.4704E+02  4.0548E+00   1.4299E+02  0.000E+00  0.000E+00  0.000E+00  1.03476E+03  2.265E+00  5.519E+01  6.140E+00  2.201E-01
   1   13    7     7     3    1.4299E+02  3.1821E+00   1.3981E+02  0.000E+00  0.000E+00  0.000E+00  1.02966E+03  2.245E+00  5.510E+01  5.572E+00  1.904E-01
   1   13    6     8     1    1.4452E+02  1.5685E+00   1.4295E+02  0.000E+00  0.000E+00  0.000E+00  1.02465E+03  2.772E+00  4.020E+01  4.096E+00  1.276E-01
   1   13    5     8     2    1.4295E+02 -1.2538E+00   1.4421E+02  0.000E+00  0.000E+00  0.000E+00  1.01840E+03  2.771E+00  4.018E+01  4.094E+00 -1.021E-01
   1   13    4     8     3    1.4421E+02 -2.9660E+00   1.4717E+02  0.000E+00  0.000E+00  0.000E+00  1.01216E+03  2.786E+00  4.040E+01  4.117E+00 -2.401E-01
   1   13    3     8     4    1.4717E+02 -3.0502E+00   1.5022E+02  0.000E+00  0.000E+00  0.000E+00  1.00593E+03  2.808E+00  4.071E+01  4.149E+00 -2.451E-01
   1   13    2     8     5    1.5022E+02 -1.1120E+00   1.5134E+02  0.000E+00  0.000E+00  0.000E+00  9.99697E+02  2.822E+00  4.092E+01  4.170E+00 -8.888E-02
   1   13    1     8     6    1.5134E+02  4.1338E-01   1.5092E+02  0.000E+00  0.000E+00  0.000E+00  9.94700E+02  2.825E+00  4.096E+01  2.504E+00  5.502E-02



1
              HEAD IN LAYER   1 AT END OF TIME STEP  50 IN STRESS PERIOD    2
  ---------------------------------------------------------------------------

           1       2       3       4       5       6       7       8       9      10
 ...................................................................................
   1  1092.86 1089.46 6999.00 6999.00 6999.00 6999.00 6999.00 6999.00 6999.00 6999.00
   2  1089.90 1086.79 1081.56 6999.00 6999.00 1071.52 1070.80 1070.42 6999.00 6999.00
   3  6999.00 1079.49 1077.67 1073.69 1072.52 1070.58 1069.11 1068.36 6999.00 6999.00
   4  1068.75 1070.60 1070.27 1067.09 1065.47 1063.63 1063.86 1065.91 1065.93 6999.00
   5  1064.73 1063.94 1062.96 1061.51 1060.82 1060.76 1060.21 1062.01 1065.65 1068.08
   6  1059.83 1058.39 1057.22 1056.43 1056.29 1056.90 1057.20 1059.09 1061.90 1065.54
   7  1056.24 1053.11 1051.78 1051.21 1051.27 1051.86 1053.20 1055.46 1056.47 6999.00
   8  6999.00 1046.37 1045.77 1045.55 1045.76 1046.45 1047.83 1049.85 1050.39 6999.00
   9  6999.00 1039.09 1039.15 1039.49 1040.04 1041.05 1041.64 1042.86 1044.04 6999.00
  10  6999.00 1031.10 1031.79 1033.26 1034.32 1035.44 1036.51 1037.62 1039.31 1041.56
  11  6999.00 1021.44 1023.10 1026.84 1028.71 1030.49 1032.09 1033.56 1035.70 6999.00
  12  1001.17 1009.24 1014.52 1019.62 1023.14 1026.18 1028.57 1030.37 1034.29 6999.00
  13   994.53  999.96 1006.67 1012.88 1018.70 1024.26 1029.09 1034.10 1036.13 6999.00
  14  6999.00 1004.01 1008.96 1013.70 1018.89 1024.03 1029.48 1035.09 1039.34 6999.00
  15  6999.00 6999.00 1011.92 1015.10 1019.13 1022.39 6999.00 6999.00 6999.00 6999.00
1
  VOLUMETRIC BUDGET FOR ENTIRE MODEL AT END OF TIME STEP   50, STRESS PERIOD   2
  ------------------------------------------------------------------------------

     CUMULATIVE VOLUMES      L**3       RATES FOR THIS TIME STEP      L**3/T
     ------------------                 ------------------------

           IN:                                      IN:
           ---                                      ---
             STORAGE = 30236489728.0000               STORAGE =           0.0000
       CONSTANT HEAD =           0.0000         CONSTANT HEAD =           0.0000
               WELLS =           0.0000                 WELLS =           0.0000
                  ET =           0.0000                    ET =           0.0000
     HEAD DEP BOUNDS =   684531968.0000       HEAD DEP BOUNDS =           0.2153
            RECHARGE =  5660645376.0000              RECHARGE =           1.7937
      STREAM LEAKAGE =231761870848.0000        STREAM LEAKAGE =          43.3752

            TOTAL IN =268343541760.0000              TOTAL IN =          45.3842

          OUT:                                     OUT:
          ----                                     ----
             STORAGE = 30234253312.0000               STORAGE =       8.4987E-03
       CONSTANT HEAD =           0.0000         CONSTANT HEAD =           0.0000
               WELLS =157788012544.0000                 WELLS =           0.0000
                  ET = 68367126528.0000                    ET =          35.8284
     HEAD DEP BOUNDS =   735923520.0000       HEAD DEP BOUNDS =           0.2483
            RECHARGE =           0.0000              RECHARGE =           0.0000
      STREAM LEAKAGE = 11218829312.0000        STREAM LEAKAGE =           9.2982

           TOTAL OUT =268344131584.0000             TOTAL OUT =          45.3834

            IN - OUT =     -589824.0000              IN - OUT =       8.1635E-04

 PERCENT DISCREPANCY =          -0.00     PERCENT DISCREPANCY =           0.00






         TIME SUMMARY AT END OF TIME STEP   50 IN STRESS PERIOD    2
                    SECONDS     MINUTES      HOURS       DAYS        YEARS
                    -----------------------------------------------------------
   TIME STEP LENGTH 1.44676E+08 2.41127E+06  40188.      1674.5      4.5845    
 STRESS PERIOD TIME 1.57788E+09 2.62980E+07 4.38300E+05  18263.      50.000    
         TOTAL TIME 3.15576E+09 5.25960E+07 8.76600E+05  36525.      100.00    
1

 Run end date and time (yyyy/mm/dd hh:mm:ss): 2013/07/31 13:33:57
 Elapsed run time:  0.595 Seconds

