                                  MODFLOW-2005     
      U.S. GEOLOGICAL SURVEY MODULAR FINITE-DIFFERENCE GROUND-WATER FLOW MODEL
                            VERSION 1.11.00 8/8/2013

 LIST FILE: tr2k_s3.lst
                         UNIT    2

 OPENING tr2k_s3.ba6
 FILE TYPE:BAS6   UNIT    1   STATUS:OLD    
 FORMAT:FORMATTED              ACCESS:SEQUENTIAL          

 OPENING tr2k_s3.dis
 FILE TYPE:DIS   UNIT   10   STATUS:OLD    
 FORMAT:FORMATTED              ACCESS:SEQUENTIAL          

 OPENING tr2k_s3.bc6
 FILE TYPE:BCF6   UNIT   11   STATUS:OLD    
 FORMAT:FORMATTED              ACCESS:SEQUENTIAL          

 OPENING tr2k_s3.wel
 FILE TYPE:WEL   UNIT   12   STATUS:OLD    
 FORMAT:FORMATTED              ACCESS:SEQUENTIAL          

 OPENING tr2k_s3.sip
 FILE TYPE:SIP   UNIT   13   STATUS:OLD    
 FORMAT:FORMATTED              ACCESS:SEQUENTIAL          

 OPENING tr2k_s3.oc
 FILE TYPE:OC   UNIT   15   STATUS:OLD    
 FORMAT:FORMATTED              ACCESS:SEQUENTIAL          

 OPENING tr2k_s3.sub
 FILE TYPE:SUB   UNIT   19   STATUS:OLD    
 FORMAT:FORMATTED              ACCESS:SEQUENTIAL          
#                                                                                                                                                                                                                                                                                                           
# Binary output files                                                                                                                                                                                                                                                                                       

 OPENING tr2k_s3.hed
 FILE TYPE:DATA(BINARY)   UNIT   21   STATUS:REPLACE
 FORMAT:BINARY                 ACCESS:SEQUENTIAL          

 OPENING tr2k_s3.ddn
 FILE TYPE:DATA(BINARY)   UNIT   22   STATUS:REPLACE
 FORMAT:BINARY                 ACCESS:SEQUENTIAL          

 OPENING tr2k_s3.sbs
 FILE TYPE:DATA(BINARY)   UNIT   41   STATUS:REPLACE
 FORMAT:BINARY                 ACCESS:SEQUENTIAL          

 OPENING tr2k_s3.cmp
 FILE TYPE:DATA(BINARY)   UNIT   42   STATUS:REPLACE
 FORMAT:BINARY                 ACCESS:SEQUENTIAL          

 BAS -- BASIC PACKAGE, VERSION 7, 5/2/2005 INPUT READ FROM UNIT    1
 
 MODFLOW was compiled using mixed precision
 Precision of REAL variables:           6
 Precision of DOUBLE PRECISION variables:          15

 DISCRETIZATION INPUT DATA READ FROM UNIT   10
    3 LAYERS        10 ROWS        10 COLUMNS
   31 STRESS PERIOD(S) IN SIMULATION
 MODEL TIME UNIT IS DAYS
 MODEL LENGTH UNIT IS UNDEFINED
  Confining bed flag for each layer:
   0   0   0

                     DELR =  1000.000    

                     DELC =   2000.00    

 TOP ELEVATION OF LAYER 1 =   0.00000    

   MODEL LAYER BOTTOM EL. = -100.0000     FOR LAYER   1

   MODEL LAYER BOTTOM EL. =  -150.000     FOR LAYER   2

   MODEL LAYER BOTTOM EL. =  -250.000     FOR LAYER   3


 STRESS PERIOD     LENGTH       TIME STEPS     MULTIPLIER FOR DELT    SS FLAG
 ----------------------------------------------------------------------------
        1        1.0000000          1                    1.000         SS
        2         365.3000          6                    1.300         TR
        3         365.3000          6                    1.300         TR
        4         365.3000          6                    1.300         TR
        5         365.3000          6                    1.300         TR
        6         365.3000          6                    1.300         TR
        7         365.3000          6                    1.300         TR
        8         365.3000          6                    1.300         TR
        9         365.3000          6                    1.300         TR
       10         365.3000          6                    1.300         TR
       11         365.3000          6                    1.300         TR
       12         365.3000          6                    1.300         TR
       13         365.3000          6                    1.300         TR
       14         365.3000          6                    1.300         TR
       15         365.3000          6                    1.300         TR
       16         365.3000          6                    1.300         TR
       17         365.3000          6                    1.300         TR
       18         365.3000          6                    1.300         TR
       19         365.3000          6                    1.300         TR
       20         365.3000          6                    1.300         TR
       21         365.3000          6                    1.300         TR
       22         365.3000          6                    1.300         TR
       23         365.3000          6                    1.300         TR
       24         365.3000          6                    1.300         TR
       25         365.3000          6                    1.300         TR
       26         365.3000          6                    1.300         TR
       27         365.3000          6                    1.300         TR
       28         365.3000          6                    1.300         TR
       29         365.3000          6                    1.300         TR
       30         365.3000          6                    1.300         TR
       31         365.3000          6                    1.300         TR

 COMBINED STEADY-STATE AND TRANSIENT SIMULATION



 
 #Sample Problem 3                                                               
 #SUB1 documentation                                                             



                     BOUNDARY ARRAY FOR LAYER   1
 READING ON UNIT    1 WITH FORMAT: (20I4)              

        1   2   3   4   5   6   7   8   9  10
 ............................................
   1    3   3   1   1   1   1   1   1   3   3
   2    3   2   2   2   2   2   2   2   2   3
   3    3   2   2   2   2   5   5   2   2   3
   4    3   2   2   2   2   5   5   2   2   3
   5    1   2   2   2   2   2   2   2   2   1
   6    1   2   2   2   2   2   2   2   2   1
   7    1   2   2   2   2   2   2   2   2   1
   8    1   2   2   2   2   2   2   2   2   1
   9    1   2   2   2   2   2   2   2   2   1
  10    1   1   1  -4  -4  -4  -4   1   1   1

           BOUNDARY ARRAY =              1 FOR LAYER   2

           BOUNDARY ARRAY =              1 FOR LAYER   3

 AQUIFER HEAD WILL BE SET TO   999.00     AT ALL NO-FLOW NODES (IBOUND=0).

             INITIAL HEAD =   0.00000     FOR LAYER   1

             INITIAL HEAD =   0.00000     FOR LAYER   2

             INITIAL HEAD =   0.00000     FOR LAYER   3

 OUTPUT CONTROL IS SPECIFIED ONLY AT TIME STEPS FOR WHICH OUTPUT IS DESIRED
 IBOUND WILL BE SAVED ON UNIT   50
 HEAD PRINT FORMAT CODE IS   4    DRAWDOWN PRINT FORMAT CODE IS   5
 HEADS WILL BE SAVED ON UNIT   21    DRAWDOWNS WILL BE SAVED ON UNIT   22

 BCF -- BLOCK-CENTERED FLOW PACKAGE, VERSION 7, 5/2/2005
         INPUT READ FROM UNIT 11
 TRANSIENT SIMULATION
 HEAD AT CELLS THAT CONVERT TO DRY=   0.0000    
 WETTING CAPABILITY IS NOT ACTIVE
      LAYER  LAYER-TYPE CODE     INTERBLOCK T
      --------------------------------------------
         1            1          0 -- HARMONIC    
         2            0          0 -- HARMONIC    
         3            0          0 -- HARMONIC    

 COLUMN TO ROW ANISOTROPY =  1.000000    

     PRIMARY STORAGE COEF =  1.000000E-01 FOR LAYER   1

    HYD. COND. ALONG ROWS =   20.0000     FOR LAYER   1

 VERT HYD COND /THICKNESS =  3.000000E-06 FOR LAYER   1

     PRIMARY STORAGE COEF =  6.560000E-05 FOR LAYER   2



               TRANSMIS. ALONG ROWS FOR LAYER   2
 READING ON UNIT   11 WITH FORMAT: (10F7.0)            

            1           2           3           4           5           6           7           8           9          10
 ........................................................................................................................
   1   1000.0      1000.0      1000.0      1000.0      1000.0      1000.0      1000.0      1000.0      1000.0      1000.0    
   2   1000.0      0.5000      0.5000      0.5000      0.5000      0.5000      0.5000      0.5000      0.5000      1000.0    
   3   1000.0      0.5000      0.5000      0.5000      0.5000      0.5000      0.5000      0.5000      0.5000      1000.0    
   4   1000.0      0.5000      0.5000      0.5000      0.5000      0.5000      0.5000      0.5000      0.5000      1000.0    
   5   1000.0      0.5000      0.5000      0.5000      0.5000      0.5000      0.5000      0.5000      0.5000      1000.0    
   6   1000.0      0.5000      0.5000      0.5000      0.5000      0.5000      0.5000      0.5000      0.5000      1000.0    
   7   1000.0      0.5000      0.5000      0.5000      0.5000      0.5000      0.5000      0.5000      0.5000      1000.0    
   8   1000.0      0.5000      0.5000      0.5000      0.5000      0.5000      0.5000      0.5000      0.5000      1000.0    
   9   1000.0      0.5000      0.5000      0.5000      0.5000      0.5000      0.5000      0.5000      0.5000      1000.0    
  10   1000.0      1000.0      1000.0      1000.0      1000.0      1000.0      1000.0      1000.0      1000.0      1000.0    

 VERT HYD COND /THICKNESS =  3.000000E-06 FOR LAYER   2

     PRIMARY STORAGE COEF =  2.620000E-04 FOR LAYER   3

     TRANSMIS. ALONG ROWS =  1000.000     FOR LAYER   3

 WEL -- WELL PACKAGE, VERSION 7, 5/2/2005 INPUT READ FROM UNIT   12
 No named parameters
 MAXIMUM OF     14 ACTIVE WELLS AT ONE TIME


     0 Well parameters

SUB7 -- SUBSIDENCE PACKAGE, VERSION 7, 03/31/2006 INPUT READ FROM UNIT 19

         NUMBER OF SYSTEMS OF NO-DELAYED INTERBEDS:  3
              NUMBER OF SYSTEMS OF DELAY INTERBEDS:  2
                          NUMBER OF MATERIAL ZONES:  1
                    NUMBER OF NODES IN EACH STRING: 20
 RESTART INFORMATION WILL NOT BE SAVED FOR DELAY INTERBEDS
 RESTART INFORMATION WILL NOT BE READ FOR DELAY INTERBEDS
 OUTPUT CONTROL RECORDS FOR SUB PACKAGE WILL BE READ.

 MODEL LAYER ASSIGNMENTS FOR EACH OF  3 NO-DELAY SYSTEMS OF INTERBEDS:
    1   2   3

 MODEL LAYER ASSIGNMENTS FOR EACH OF  2 DELAY SYSTEMS OF INTERBEDS:
    1   3

  SYSTEM   1 OF DELAY BEDS:

 NUMBER OF BEDS IN SYSTEM =   7.63500     FOR LAYER   1

  SYSTEM   2 OF DELAY BEDS:

 NUMBER OF BEDS IN SYSTEM =   17.7180     FOR LAYER   3

  SYSTEM   1 OF NO-DELAY BEDS:

    PRECONSOLIDATION HEAD =  -7.00000     FOR LAYER   1

  SYSTEM   1 OF NO-DELAY BEDS:

 ELASTIC INTERBED STORAGE =  2.100000E-04 FOR LAYER   1

  SYSTEM   1 OF NO-DELAY BEDS:

  VIRGIN INTERBED STORAGE =  9.120000E-03 FOR LAYER   1

  SYSTEM   1 OF NO-DELAY BEDS:

      STARTING COMPACTION =   0.00000     FOR LAYER   1

  SYSTEM   2 OF NO-DELAY BEDS:

    PRECONSOLIDATION HEAD =  -7.00000     FOR LAYER   2

  SYSTEM   2 OF NO-DELAY BEDS:

 ELASTIC INTERBED STORAGE =  1.500000E-04 FOR LAYER   2

  SYSTEM   2 OF NO-DELAY BEDS:



            VIRGIN INTERBED STORAGE FOR LAYER   2
 READING ON UNIT   19 WITH FORMAT: (10F7.0)            

            1           2           3           4           5           6           7           8           9          10
 ........................................................................................................................
   1   7.6000E-03  7.6000E-03  7.6000E-03  7.6000E-03  7.6000E-03  7.6000E-03  7.6000E-03  7.6000E-03  7.6000E-03  7.6000E-03
   2   7.6000E-03  1.5000E-02  1.5000E-02  1.5000E-02  1.5000E-02  1.5000E-02  1.5000E-02  1.5000E-02  1.5000E-02  7.6000E-03
   3   7.6000E-03  1.5000E-02  1.5000E-02  1.5000E-02  1.5000E-02  1.5000E-02  1.5000E-02  1.5000E-02  1.5000E-02  7.6000E-03
   4   7.6000E-03  1.5000E-02  1.5000E-02  1.5000E-02  1.5000E-02  1.5000E-02  1.5000E-02  1.5000E-02  1.5000E-02  7.6000E-03
   5   7.6000E-03  1.5000E-02  1.5000E-02  1.5000E-02  1.5000E-02  1.5000E-02  1.5000E-02  1.5000E-02  1.5000E-02  7.6000E-03
   6   7.6000E-03  1.5000E-02  1.5000E-02  1.5000E-02  1.5000E-02  1.5000E-02  1.5000E-02  1.5000E-02  1.5000E-02  7.6000E-03
   7   7.6000E-03  1.5000E-02  1.5000E-02  1.5000E-02  1.5000E-02  1.5000E-02  1.5000E-02  1.5000E-02  1.5000E-02  7.6000E-03
   8   7.6000E-03  1.5000E-02  1.5000E-02  1.5000E-02  1.5000E-02  1.5000E-02  1.5000E-02  1.5000E-02  1.5000E-02  7.6000E-03
   9   7.6000E-03  1.5000E-02  1.5000E-02  1.5000E-02  1.5000E-02  1.5000E-02  1.5000E-02  1.5000E-02  1.5000E-02  7.6000E-03
  10   7.6000E-03  7.6000E-03  7.6000E-03  7.6000E-03  7.6000E-03  7.6000E-03  7.6000E-03  7.6000E-03  7.6000E-03  7.6000E-03

  SYSTEM   2 OF NO-DELAY BEDS:

      STARTING COMPACTION =   0.00000     FOR LAYER   2

  SYSTEM   3 OF NO-DELAY BEDS:

    PRECONSOLIDATION HEAD =  -7.00000     FOR LAYER   3

  SYSTEM   3 OF NO-DELAY BEDS:

 ELASTIC INTERBED STORAGE =  4.200000E-04 FOR LAYER   3

  SYSTEM   3 OF NO-DELAY BEDS:

  VIRGIN INTERBED STORAGE =  1.824000E-02 FOR LAYER   3

  SYSTEM   3 OF NO-DELAY BEDS:

      STARTING COMPACTION =   0.00000     FOR LAYER   3

 MATERIAL PROPERTIES OF INTERBEDS WITH DELAY PROPERTIES

   ZONE        HYDRAULIC           ELASTIC            INELASTIC       
  NUMBER      CONDUCTIVITY     SPECIFIC STORAGE    SPECIFIC STORAGE   
 ---------------------------------------------------------------------
    1        0.10000E-05         0.60000E-05         0.60000E-03

  SYSTEM   1 OF DELAY BEDS:



                DELAY STARTING HEAD FOR LAYER   1
 READING ON UNIT   19 WITH FORMAT: (10F7.0)            

            1           2           3           4           5           6           7           8           9          10
 ........................................................................................................................
   1    22.66       22.31       21.66       21.25       21.05       21.05       21.25       21.66       22.31       22.66    
   2    21.62       21.13       20.71       20.42       20.27       20.27       20.42       20.71       21.13       21.62    
   3    20.11       19.63       19.27       19.03       18.91       18.91       19.03       19.27       19.63       20.11    
   4    18.05       17.62       17.33       17.14       17.05       17.05       17.14       17.33       17.62       18.05    
   5    15.12       15.03       14.93       14.85       14.81       14.81       14.85       14.93       15.03       15.12    
   6    12.47       12.44       12.40       12.37       12.35       12.35       12.37       12.40       12.44       12.47    
   7    9.870       9.845       9.805       9.766       9.742       9.742       9.766       9.805       9.845       9.870    
   8    7.297       7.235       7.133       7.029       6.970       6.970       7.029       7.133       7.235       7.297    
   9    4.891       4.709       4.383       4.017       3.864       3.864       4.017       4.383       4.709       4.891    
  10    3.135       2.680       1.696       0.000       0.000       0.000       0.000       1.696       2.680       3.135    

  SYSTEM   1 OF DELAY BEDS:

    DELAY PRECOLSOL. HEAD =  -7.00000     FOR LAYER   1

  SYSTEM   1 OF DELAY BEDS:

 DELAY INITIAL COMPACTION =   0.00000     FOR LAYER   1

  SYSTEM   1 OF DELAY BEDS:

 DELAY INTERBED THICKNESS =   5.89400     FOR LAYER   1

  SYSTEM   1 OF DELAY BEDS:

    MATERIAL ZONE INDICES =              1 FOR LAYER   1

  SYSTEM   2 OF DELAY BEDS:



                DELAY STARTING HEAD FOR LAYER   3
 READING ON UNIT   19 WITH FORMAT: (10F7.0)            

            1           2           3           4           5           6           7           8           9          10
 ........................................................................................................................
   1    13.29       13.30       13.30       13.30       13.30       13.30       13.30       13.30       13.30       13.29    
   2    13.27       13.27       13.28       13.28       13.28       13.28       13.28       13.28       13.27       13.27    
   3    13.21       13.22       13.22       13.22       13.22       13.22       13.22       13.22       13.22       13.21    
   4    13.13       13.13       13.13       13.14       13.14       13.14       13.14       13.13       13.13       13.13    
   5    13.02       13.03       13.03       13.03       13.03       13.03       13.03       13.03       13.03       13.02    
   6    12.91       12.91       12.91       12.91       12.91       12.91       12.91       12.91       12.91       12.91    
   7    12.80       12.80       12.80       12.80       12.80       12.80       12.80       12.80       12.80       12.80    
   8    12.71       12.70       12.70       12.70       12.70       12.70       12.70       12.70       12.70       12.71    
   9    12.64       12.64       12.63       12.63       12.63       12.63       12.63       12.63       12.64       12.64    
  10    12.61       12.61       12.61       12.61       12.60       12.60       12.61       12.61       12.61       12.61    

  SYSTEM   2 OF DELAY BEDS:

    DELAY PRECOLSOL. HEAD =  -7.00000     FOR LAYER   3

  SYSTEM   2 OF DELAY BEDS:

 DELAY INITIAL COMPACTION =   0.00000     FOR LAYER   3

  SYSTEM   2 OF DELAY BEDS:

 DELAY INTERBED THICKNESS =   5.08000     FOR LAYER   3

  SYSTEM   2 OF DELAY BEDS:

    MATERIAL ZONE INDICES =              1 FOR LAYER   3

             SUBSIDENCE PRINT FORMAT IS NUMBER   0
                 UNIT FOR SAVING SUBSIDENCE IS  41
    COMPACTION BY LAYER PRINT FORMAT IS NUMBER   0
        UNIT FOR SAVING COMPACTION BY LAYER IS  42
   COMPACTION BY SYSTEM PRINT FORMAT IS NUMBER   0
       UNIT FOR SAVING COMPACTION BY SYSTEM IS  42
  VERTICAL DISPLACEMENT PRINT FORMAT IS NUMBER   0
      UNIT FOR SAVING VERTICAL DISPLACEMENT IS  41
 NO-DELAY CRITICAL HEAD PRINT FORMAT IS NUMBER   0
     UNIT FOR SAVING NO-DELAY CRITICAL HEAD IS  43
    DELAY CRITICAL HEAD PRINT FORMAT IS NUMBER   0
        UNIT FOR SAVING DELAY CRITICAL HEAD IS  43

 SIP -- STRONGLY-IMPLICIT PROCEDURE SOLUTION PACKAGE
                    VERSION 7, 5/2/2005 INPUT READ FROM UNIT   13
 MAXIMUM OF 120 ITERATIONS ALLOWED FOR CLOSURE
  5 ITERATION PARAMETERS

          SOLUTION BY THE STRONGLY IMPLICIT PROCEDURE
          -------------------------------------------
 MAXIMUM ITERATIONS ALLOWED FOR CLOSURE =      120
                 ACCELERATION PARAMETER =    1.00000    
      HEAD CHANGE CRITERION FOR CLOSURE =    0.10000E-04
      SIP HEAD CHANGE PRINTOUT INTERVAL =        1

     CALCULATE ITERATION PARAMETERS FROM MODEL CALCULATED WSEED
1
                            STRESS PERIOD NO.    1, LENGTH =  1.0000000    
                            -----------------------------------------------

                              NUMBER OF TIME STEPS =     1

                               MULTIPLIER FOR DELT =     1.000

                            INITIAL TIME STEP SIZE =  1.0000000    

 WELL NO.  LAYER   ROW   COL   STRESS RATE         
 --------------------------------------------------
      1      1      1      1       3000.    
      2      1      1      2       3000.    
      3      1      1      9       3000.    
      4      1      1     10       3000.    
      5      1      2      1       3000.    
      6      1      2     10       3000.    
      7      1      3      1       3000.    
      8      1      3     10       3000.    
      9      1      4      1       3000.    
     10      1      4     10       3000.    

     10 WELLS
 
 SOLVING FOR HEAD 

 AVERAGE SEED = 0.00104234
 MINIMUM SEED = 0.00001229

     5 ITERATION PARAMETERS CALCULATED FROM AVERAGE SEED:

  0.000000E+00 0.820319E+00 0.967715E+00 0.994199E+00 0.998958E+00

    53 ITERATIONS FOR TIME STEP   1 IN STRESS PERIOD    1

 MAXIMUM HEAD CHANGE FOR EACH ITERATION:

    HEAD CHANGE   HEAD CHANGE   HEAD CHANGE   HEAD CHANGE   HEAD CHANGE
  LAYER,ROW,COL LAYER,ROW,COL LAYER,ROW,COL LAYER,ROW,COL LAYER,ROW,COL
 ----------------------------------------------------------------------
      2.671         2.508         5.470         11.54         8.275    
  (  1,  1, 10) (  1,  1, 10) (  1,  1,  1) (  1,  1, 10) (  3,  1,  1)
      2.524         1.287       -0.9950        -2.001        -1.404    
  (  2,  2,  9) (  2, 10,  2) (  1,  7,  3) (  1,  1,  1) (  1,  1,  1)
     0.6811        0.3993        0.2702        0.7622        0.9893    
  (  2,  6,  1) (  2,  1,  2) (  1,  1,  1) (  1,  1, 10) (  3,  1,  1)
    -0.1359        0.9522E-01   -0.7821E-01   -0.1634       -0.1033    
  (  2,  9,  7) (  2, 10,  2) (  1,  7,  3) (  1,  1,  1) (  1,  1,  1)
     0.5098E-01    0.3160E-01    0.2107E-01    0.5952E-01    0.9494E-01
  (  2,  9,  6) (  2,  1,  2) (  1,  1,  1) (  1,  1, 10) (  3,  1,  1)
    -0.1183E-01    0.7216E-02   -0.6377E-02   -0.1338E-01   -0.7857E-02
  (  2,  9,  7) (  2, 10,  2) (  1,  7,  3) (  1,  1,  1) (  1,  1,  1)
     0.4081E-02    0.2552E-02    0.1665E-02    0.4683E-02    0.8298E-02
  (  2,  9,  6) (  2,  1,  2) (  1,  1,  1) (  1,  1, 10) (  3,  1,  1)
    -0.9886E-03    0.5633E-03   -0.5118E-03   -0.1076E-02   -0.6007E-03
  (  2,  9,  7) (  2, 10,  2) (  1,  7,  3) (  1,  1,  1) (  1,  1,  1)
     0.3226E-03    0.2046E-03    0.1307E-03    0.3683E-03    0.6929E-03
  (  2,  9,  6) (  2,  1,  2) (  1,  1,  1) (  1,  1, 10) (  3,  1,  1)
    -0.8038E-04    0.4421E-04   -0.4030E-04   -0.8452E-04    0.5287E-04
  (  2,  9,  7) (  2, 10,  2) (  1,  7,  3) (  1,  1,  1) (  3,  5,  1)
     0.2493E-04    0.1610E-04    0.9961E-05
  (  2,  9,  6) (  2,  1,  2) (  1,  1,  1)


 OUTPUT CONTROL FOR STRESS PERIOD    1   TIME STEP    1
    PRINT BUDGET
    PRINT HEAD FOR ALL LAYERS
    SAVE HEAD FOR ALL LAYERS
    SAVE DRAWDOWN FOR ALL LAYERS
1
              HEAD IN LAYER   1 AT END OF TIME STEP   1 IN STRESS PERIOD    1
  ---------------------------------------------------------------------------

           1       2       3       4       5       6       7       8       9      10
 ...................................................................................
   1    22.66   22.31   21.66   21.25   21.04   21.04   21.25   21.66   22.31   22.66
   2    21.62   21.13   20.71   20.42   20.27   20.27   20.42   20.71   21.13   21.62
   3    20.11   19.63   19.27   19.03   18.91   18.91   19.03   19.27   19.63   20.11
   4    18.05   17.62   17.33   17.14   17.05   17.05   17.14   17.33   17.62   18.05
   5    15.12   15.03   14.93   14.85   14.81   14.81   14.85   14.93   15.03   15.12
   6    12.47   12.44   12.40   12.37   12.35   12.35   12.37   12.40   12.44   12.47
   7     9.87    9.84    9.81    9.77    9.74    9.74    9.77    9.81    9.84    9.87
   8     7.30    7.24    7.13    7.03    6.97    6.97    7.03    7.13    7.24    7.30
   9     4.89    4.71    4.38    4.02    3.86    3.86    4.02    4.38    4.71    4.89
  10     3.13    2.68    1.70    0.00    0.00    0.00    0.00    1.70    2.68    3.13
1
              HEAD IN LAYER   2 AT END OF TIME STEP   1 IN STRESS PERIOD    1
  ---------------------------------------------------------------------------

           1       2       3       4       5       6       7       8       9      10
 ...................................................................................
   1    14.85   14.91   14.96   14.99   15.00   15.00   14.99   14.96   14.91   14.85
   2    14.53   16.75   16.88   16.77   16.70   16.70   16.77   16.88   16.75   14.53
   3    14.14   16.10   16.22   16.12   16.06   16.06   16.12   16.22   16.10   14.14
   4    13.67   15.13   15.21   15.14   15.09   15.09   15.14   15.21   15.13   13.67
   5    13.15   13.91   13.97   13.94   13.92   13.92   13.94   13.97   13.91   13.15
   6    12.61   12.67   12.66   12.64   12.63   12.63   12.64   12.66   12.67   12.61
   7    12.06   11.42   11.31   11.28   11.27   11.27   11.28   11.31   11.42   12.06
   8    11.54   10.18    9.93    9.87    9.84    9.84    9.87    9.93   10.18   11.54
   9    11.05    9.06    8.63    8.44    8.37    8.37    8.44    8.63    9.06   11.05
  10    10.63   10.55   10.47   10.42   10.40   10.40   10.42   10.47   10.55   10.63
1
              HEAD IN LAYER   3 AT END OF TIME STEP   1 IN STRESS PERIOD    1
  ---------------------------------------------------------------------------

           1       2       3       4       5       6       7       8       9      10
 ...................................................................................
   1    13.29   13.29   13.30   13.30   13.30   13.30   13.30   13.30   13.29   13.29
   2    13.27   13.27   13.28   13.28   13.28   13.28   13.28   13.28   13.27   13.27
   3    13.21   13.22   13.22   13.22   13.22   13.22   13.22   13.22   13.22   13.21
   4    13.13   13.13   13.13   13.14   13.14   13.14   13.14   13.13   13.13   13.13
   5    13.02   13.03   13.03   13.03   13.03   13.03   13.03   13.03   13.03   13.02
   6    12.91   12.91   12.91   12.91   12.91   12.91   12.91   12.91   12.91   12.91
   7    12.80   12.80   12.80   12.80   12.80   12.80   12.80   12.80   12.80   12.80
   8    12.71   12.70   12.70   12.70   12.70   12.70   12.70   12.70   12.70   12.71
   9    12.64   12.64   12.63   12.63   12.63   12.63   12.63   12.63   12.64   12.64
  10    12.61   12.61   12.61   12.61   12.61   12.61   12.61   12.61   12.61   12.61

 HEAD WILL BE SAVED ON UNIT   21 AT END OF TIME STEP    1, STRESS PERIOD    1

 DRAWDOWN WILL BE SAVED ON UNIT   22 AT END OF TIME STEP    1, STRESS PERIOD    1
1
  VOLUMETRIC BUDGET FOR ENTIRE MODEL AT END OF TIME STEP    1, STRESS PERIOD   1
  ------------------------------------------------------------------------------

     CUMULATIVE VOLUMES      L**3       RATES FOR THIS TIME STEP      L**3/T
     ------------------                 ------------------------

           IN:                                      IN:
           ---                                      ---
             STORAGE =           0.0000               STORAGE =           0.0000
       CONSTANT HEAD =           0.0000         CONSTANT HEAD =           0.0000
               WELLS =       30000.0000                 WELLS =       30000.0000
    INST. IB STORAGE =           0.0000      INST. IB STORAGE =           0.0000
    DELAY IB STORAGE =           0.0000      DELAY IB STORAGE =           0.0000

            TOTAL IN =       30000.0000              TOTAL IN =       30000.0000

          OUT:                                     OUT:
          ----                                     ----
             STORAGE =           0.0000               STORAGE =           0.0000
       CONSTANT HEAD =       29999.9199         CONSTANT HEAD =       29999.9199
               WELLS =           0.0000                 WELLS =           0.0000
    INST. IB STORAGE =           0.0000      INST. IB STORAGE =           0.0000
    DELAY IB STORAGE =           0.0000      DELAY IB STORAGE =           0.0000

           TOTAL OUT =       29999.9199             TOTAL OUT =       29999.9199

            IN - OUT =       8.0078E-02              IN - OUT =       8.0078E-02

 PERCENT DISCREPANCY =           0.00     PERCENT DISCREPANCY =           0.00






         TIME SUMMARY AT END OF TIME STEP    1 IN STRESS PERIOD    1
                    SECONDS     MINUTES      HOURS       DAYS        YEARS
                    -----------------------------------------------------------
   TIME STEP LENGTH  86400.      1440.0      24.000     1.00000     2.73785E-03
 STRESS PERIOD TIME  86400.      1440.0      24.000     1.00000     2.73785E-03
         TOTAL TIME  86400.      1440.0      24.000     1.00000     2.73785E-03
1
1
                            STRESS PERIOD NO.    2, LENGTH =   365.3000    
                            -----------------------------------------------

                              NUMBER OF TIME STEPS =     6

                               MULTIPLIER FOR DELT =     1.300

                            INITIAL TIME STEP SIZE =   28.63744    

 WELL NO.  LAYER   ROW   COL   STRESS RATE         
 --------------------------------------------------
      1      1      1      1       3000.    
      2      1      1      2       3000.    
      3      1      1      9       3000.    
      4      1      1     10       3000.    
      5      1      2      1       3000.    
      6      1      2     10       3000.    
      7      1      3      1       3000.    
      8      1      3     10       3000.    
      9      1      4      1       3000.    
     10      1      4     10       3000.    
     11      3      3      6     -0.1400E+05
     12      3      3      7      -8000.    
     13      3      4      6      -5000.    
     14      3      4      7      -3000.    

     14 WELLS
 
 SOLVING FOR HEAD 

    36 ITERATIONS FOR TIME STEP   1 IN STRESS PERIOD    2

 MAXIMUM HEAD CHANGE FOR EACH ITERATION:

    HEAD CHANGE   HEAD CHANGE   HEAD CHANGE   HEAD CHANGE   HEAD CHANGE
  LAYER,ROW,COL LAYER,ROW,COL LAYER,ROW,COL LAYER,ROW,COL LAYER,ROW,COL
 ----------------------------------------------------------------------
     -6.802        -3.312        -3.377        -1.292        0.5812    
  (  3,  3,  6) (  3,  2,  8) (  3,  2,  7) (  3,  3,  1) (  3,  1,  1)
    -0.1455        0.1651        0.4065        0.3511        0.1262    
  (  2,  7,  1) (  3,  2,  9) (  3,  1, 10) (  3,  2,  1) (  3,  1, 10)
     0.2769E-01    0.3005E-01    0.5811E-01    0.5326E-01    0.1428E-01
  (  2,  8,  1) (  3,  1, 10) (  3,  2,  6) (  3,  1, 10) (  3,  3,  7)
     0.2964E-02    0.4980E-02    0.1055E-01    0.7562E-02    0.3029E-02
  (  2,  8,  1) (  3,  3,  7) (  3,  1, 10) (  3,  2,  6) (  3,  3,  7)
     0.8697E-03    0.9241E-03    0.1539E-02    0.1291E-02    0.4379E-03
  (  2,  8,  1) (  3,  3,  7) (  3,  3,  7) (  3,  3,  7) (  3,  3,  7)
     0.1087E-03    0.2151E-03    0.4048E-03    0.2740E-03    0.1346E-03
  (  3,  3,  7) (  3,  3,  7) (  3,  3,  7) (  3,  3,  7) (  3,  3,  7)
     0.3264E-04    0.4444E-04    0.8827E-04    0.6786E-04   -0.3897E-04
  (  2,  8,  1) (  3,  3,  7) (  3,  3,  7) (  3,  3,  7) (  3, 10,  1)
     0.7226E-05
  (  3,  3,  7)


 OUTPUT CONTROL FOR STRESS PERIOD    2   TIME STEP    1
    PRINT HEAD FOR ALL LAYERS
    PRINT BUDGET
    SAVE HEAD FOR ALL LAYERS
1
              HEAD IN LAYER   1 AT END OF TIME STEP   1 IN STRESS PERIOD    2
  ---------------------------------------------------------------------------

           1       2       3       4       5       6       7       8       9      10
 ...................................................................................
   1    22.66   22.31   21.66   21.24   21.04   21.04   21.24   21.66   22.31   22.66
   2    21.62   21.13   20.71   20.42   20.27   20.27   20.42   20.71   21.13   21.62
   3    20.11   19.63   19.27   19.02   18.90   18.90   19.02   19.26   19.63   20.11
   4    18.05   17.62   17.33   17.14   17.05   17.05   17.14   17.33   17.62   18.05
   5    15.11   15.03   14.93   14.85   14.81   14.81   14.85   14.93   15.03   15.11
   6    12.47   12.44   12.40   12.37   12.35   12.35   12.37   12.40   12.44   12.47
   7     9.87    9.84    9.80    9.77    9.74    9.74    9.77    9.80    9.84    9.87
   8     7.30    7.23    7.13    7.03    6.97    6.97    7.03    7.13    7.23    7.30
   9     4.89    4.71    4.38    4.02    3.86    3.86    4.02    4.38    4.71    4.89
  10     3.13    2.68    1.70    0.00    0.00    0.00    0.00    1.70    2.68    3.13
1
              HEAD IN LAYER   2 AT END OF TIME STEP   1 IN STRESS PERIOD    2
  ---------------------------------------------------------------------------

           1       2       3       4       5       6       7       8       9      10
 ...................................................................................
   1    13.88   13.93   13.96   13.97   13.98   13.97   13.95   13.92   13.87   13.81
   2    13.62   15.71   15.74   15.50   15.27   15.13   15.20   15.41   15.39   13.51
   3    13.28   15.02   14.97   14.60   14.09   13.39   13.63   14.29   14.52   13.15
   4    12.88   14.16   14.11   13.84   13.52   13.16   13.27   13.63   13.76   12.75
   5    12.44   13.14   13.14   13.02   12.91   12.83   12.84   12.92   12.91   12.32
   6    11.97   12.09   12.06   12.01   11.96   11.94   11.94   11.96   11.97   11.87
   7    11.50   10.99   10.88   10.84   10.81   10.80   10.81   10.83   10.93   11.42
   8    11.04    9.85    9.62    9.54    9.51    9.50    9.53    9.59    9.82   10.98
   9    10.61    8.79    8.38    8.19    8.11    8.11    8.18    8.37    8.78   10.57
  10    10.23   10.15   10.08   10.03   10.01   10.01   10.03   10.07   10.13   10.21
1
              HEAD IN LAYER   3 AT END OF TIME STEP   1 IN STRESS PERIOD    2
  ---------------------------------------------------------------------------

           1       2       3       4       5       6       7       8       9      10
 ...................................................................................
   1     8.96    8.84    8.61    8.31    7.99    7.74    7.65    7.70    7.79    7.86
   2     8.75    8.55    8.15    7.56    6.84    6.19    6.19    6.61    7.01    7.24
   3     8.60    8.28    7.59    6.38    4.36    0.93    1.84    4.51    5.92    6.54
   4     8.96    8.71    8.18    7.32    6.06    4.33    4.66    5.99    6.84    7.25
   5     9.67    9.54    9.28    8.91    8.48    8.11    8.08    8.28    8.50    8.63
   6    10.38   10.32   10.21   10.07    9.91    9.79    9.75    9.76    9.80    9.83
   7    10.94   10.91   10.86   10.80   10.74   10.69   10.66   10.65   10.65   10.66
   8    11.31   11.30   11.28   11.25   11.22   11.20   11.18   11.17   11.17   11.17
   9    11.54   11.53   11.52   11.50   11.49   11.48   11.47   11.46   11.46   11.46
  10    11.65   11.64   11.64   11.63   11.62   11.61   11.61   11.60   11.60   11.60

 HEAD WILL BE SAVED ON UNIT   21 AT END OF TIME STEP    1, STRESS PERIOD    2
1
  VOLUMETRIC BUDGET FOR ENTIRE MODEL AT END OF TIME STEP    1, STRESS PERIOD   2
  ------------------------------------------------------------------------------

     CUMULATIVE VOLUMES      L**3       RATES FOR THIS TIME STEP      L**3/T
     ------------------                 ------------------------

           IN:                                      IN:
           ---                                      ---
             STORAGE =      224229.2656               STORAGE =        7829.9341
       CONSTANT HEAD =           0.0000         CONSTANT HEAD =           0.0000
               WELLS =      889123.1875                 WELLS =       30000.0000
    INST. IB STORAGE =      344509.6875      INST. IB STORAGE =       12030.0449
    DELAY IB STORAGE =      290021.4688      DELAY IB STORAGE =       10127.3535

            TOTAL IN =     1747883.5000              TOTAL IN =       59987.3320

          OUT:                                     OUT:
          ----                                     ----
             STORAGE =           0.0000               STORAGE =           0.0000
       CONSTANT HEAD =      888768.8125         CONSTANT HEAD =       29987.6270
               WELLS =      859123.1875                 WELLS =       30000.0000
    INST. IB STORAGE =           0.0000      INST. IB STORAGE =           0.0000
    DELAY IB STORAGE =           0.0000      DELAY IB STORAGE =           0.0000

           TOTAL OUT =     1747892.0000             TOTAL OUT =       59987.6250

            IN - OUT =          -8.5000              IN - OUT =          -0.2930

 PERCENT DISCREPANCY =          -0.00     PERCENT DISCREPANCY =          -0.00






         TIME SUMMARY AT END OF TIME STEP    1 IN STRESS PERIOD    2
                    SECONDS     MINUTES      HOURS       DAYS        YEARS
                    -----------------------------------------------------------
   TIME STEP LENGTH 2.47427E+06  41238.      687.30      28.637     7.84050E-02
 STRESS PERIOD TIME 2.47427E+06  41238.      687.30      28.637     7.84050E-02
         TOTAL TIME 2.56067E+06  42678.      711.30      29.637     8.11429E-02
1
 
 SOLVING FOR HEAD 
    36 ITERATIONS FOR TIME STEP   2 IN STRESS PERIOD    2

 MAXIMUM HEAD CHANGE FOR EACH ITERATION:

    HEAD CHANGE   HEAD CHANGE   HEAD CHANGE   HEAD CHANGE   HEAD CHANGE
  LAYER,ROW,COL LAYER,ROW,COL LAYER,ROW,COL LAYER,ROW,COL LAYER,ROW,COL
 ----------------------------------------------------------------------
     -1.952        -2.327        -3.284        -1.812        0.6614    
  (  2,  3,  6) (  3,  1, 10) (  3,  1,  1) (  3,  4,  1) (  3,  1,  1)
    -0.2336        0.1657        0.4562        0.4924        0.1728    
  (  2,  6,  1) (  3,  1,  1) (  3,  1, 10) (  3,  2,  1) (  3,  1, 10)
     0.3521E-01    0.2605E-01    0.5743E-01    0.6173E-01    0.1612E-01
  (  2,  8,  1) (  3,  1, 10) (  3,  1,  1) (  3,  1, 10) (  3,  2,  9)
     0.2922E-02    0.3667E-02    0.9051E-02    0.7310E-02    0.2698E-02
  (  2,  8,  1) (  3,  1,  1) (  3,  1, 10) (  3,  1,  1) (  3,  1, 10)
     0.9503E-03    0.6467E-03    0.1146E-02    0.1059E-02    0.3144E-03
  (  2,  9,  1) (  3,  1, 10) (  3,  2,  7) (  3,  1, 10) (  3,  2, 10)
    -0.1221E-03    0.1227E-03    0.2796E-03    0.1889E-03    0.8094E-04
  (  2,  2,  1) (  3,  3,  7) (  3,  1, 10) (  3,  2,  6) (  3,  2,  9)
     0.3708E-04    0.1244E-04    0.2460E-04   -0.3659E-04   -0.3538E-04
  (  2,  9,  1) (  3,  3,  7) (  3,  2,  9) (  3, 10,  1) (  3, 10,  5)
    -0.5834E-05
  (  2,  2,  1)


 OUTPUT CONTROL FOR STRESS PERIOD    2   TIME STEP    2
    PRINT HEAD FOR ALL LAYERS
    PRINT BUDGET
    SAVE HEAD FOR ALL LAYERS
1
              HEAD IN LAYER   1 AT END OF TIME STEP   2 IN STRESS PERIOD    2
  ---------------------------------------------------------------------------

           1       2       3       4       5       6       7       8       9      10
 ...................................................................................
   1    22.65   22.31   21.65   21.24   21.04   21.04   21.24   21.65   22.31   22.65
   2    21.62   21.12   20.71   20.41   20.26   20.26   20.41   20.71   21.12   21.62
   3    20.11   19.62   19.26   19.02   18.90   18.90   19.02   19.26   19.62   20.11
   4    18.04   17.62   17.32   17.14   17.05   17.04   17.14   17.32   17.61   18.04
   5    15.11   15.03   14.93   14.85   14.80   14.80   14.85   14.93   15.03   15.11
   6    12.47   12.44   12.40   12.36   12.34   12.34   12.36   12.40   12.44   12.47
   7     9.87    9.84    9.80    9.76    9.74    9.74    9.76    9.80    9.84    9.87
   8     7.30    7.23    7.13    7.03    6.97    6.97    7.03    7.13    7.23    7.29
   9     4.89    4.71    4.38    4.02    3.86    3.86    4.02    4.38    4.71    4.89
  10     3.13    2.68    1.70    0.00    0.00    0.00    0.00    1.70    2.68    3.13
1
              HEAD IN LAYER   2 AT END OF TIME STEP   2 IN STRESS PERIOD    2
  ---------------------------------------------------------------------------

           1       2       3       4       5       6       7       8       9      10
 ...................................................................................
   1    12.04   12.07   12.09   12.10   12.09   12.08   12.06   12.03   11.99   11.94
   2    11.84   13.68   13.61   13.26   12.90   12.65   12.70   12.97   13.06   11.68
   3    11.58   13.00   12.80   12.22   11.38   10.22   10.55   11.56   12.07   11.38
   4    11.26   12.31   12.14   11.71   11.18   10.57   10.70   11.24   11.56   11.06
   5    10.91   11.54   11.48   11.30   11.10   10.95   10.95   11.05   11.10   10.73
   6    10.54   10.75   10.71   10.63   10.55   10.50   10.48   10.50   10.52   10.38
   7    10.16    9.88    9.78    9.73    9.69    9.66    9.66    9.68    9.75   10.03
   8     9.78    8.91    8.70    8.63    8.58    8.57    8.59    8.65    8.84    9.69
   9     9.42    7.96    7.58    7.39    7.30    7.30    7.37    7.55    7.92    9.36
  10     9.10    9.03    8.97    8.93    8.91    8.90    8.92    8.95    9.00    9.07
1
              HEAD IN LAYER   3 AT END OF TIME STEP   2 IN STRESS PERIOD    2
  ---------------------------------------------------------------------------

           1       2       3       4       5       6       7       8       9      10
 ...................................................................................
   1     3.51    3.35    3.05    2.67    2.26    1.93    1.79    1.81    1.89    1.96
   2     3.34    3.10    2.61    1.91    1.07    0.33    0.27    0.68    1.10    1.33
   3     3.36    2.99    2.19    0.83   -1.37   -4.95   -4.07   -1.36    0.11    0.76
   4     4.11    3.81    3.18    2.20    0.80   -1.04   -0.76    0.59    1.47    1.90
   5     5.36    5.19    4.87    4.42    3.91    3.48    3.41    3.60    3.82    3.96
   6     6.65    6.57    6.43    6.24    6.04    5.88    5.80    5.80    5.84    5.86
   7     7.74    7.70    7.64    7.55    7.47    7.39    7.35    7.32    7.31    7.31
   8     8.54    8.52    8.49    8.45    8.41    8.37    8.35    8.33    8.32    8.31
   9     9.06    9.05    9.03    9.01    8.99    8.97    8.95    8.94    8.93    8.93
  10     9.32    9.31    9.30    9.29    9.27    9.26    9.25    9.24    9.23    9.23

 HEAD WILL BE SAVED ON UNIT   21 AT END OF TIME STEP    2, STRESS PERIOD    2
1
  VOLUMETRIC BUDGET FOR ENTIRE MODEL AT END OF TIME STEP    2, STRESS PERIOD   2
  ------------------------------------------------------------------------------

     CUMULATIVE VOLUMES      L**3       RATES FOR THIS TIME STEP      L**3/T
     ------------------                 ------------------------

           IN:                                      IN:
           ---                                      ---
             STORAGE =      515894.0625               STORAGE =        7834.4126
       CONSTANT HEAD =           0.0000         CONSTANT HEAD =           0.0000
               WELLS =     2005983.2500                 WELLS =       30000.0000
    INST. IB STORAGE =      742645.1250      INST. IB STORAGE =       10694.3242
    DELAY IB STORAGE =      715142.0000      DELAY IB STORAGE =       11419.1699

            TOTAL IN =     3979664.5000              TOTAL IN =       59947.9062

          OUT:                                     OUT:
          ----                                     ----
             STORAGE =           0.0000               STORAGE =           0.0000
       CONSTANT HEAD =     2003685.2500         CONSTANT HEAD =       29947.7891
               WELLS =     1975983.2500                 WELLS =       30000.0000
    INST. IB STORAGE =           0.0000      INST. IB STORAGE =           0.0000
    DELAY IB STORAGE =           0.0000      DELAY IB STORAGE =           0.0000

           TOTAL OUT =     3979668.5000             TOTAL OUT =       59947.7891

            IN - OUT =          -4.0000              IN - OUT =           0.1172

 PERCENT DISCREPANCY =          -0.00     PERCENT DISCREPANCY =           0.00






         TIME SUMMARY AT END OF TIME STEP    2 IN STRESS PERIOD    2
                    SECONDS     MINUTES      HOURS       DAYS        YEARS
                    -----------------------------------------------------------
   TIME STEP LENGTH 3.21656E+06  53609.      893.49      37.229     0.10193    
 STRESS PERIOD TIME 5.69083E+06  94847.      1580.8      65.866     0.18033    
         TOTAL TIME 5.77723E+06  96287.      1604.8      66.866     0.18307    
1
 
 SOLVING FOR HEAD 
    36 ITERATIONS FOR TIME STEP   3 IN STRESS PERIOD    2

 MAXIMUM HEAD CHANGE FOR EACH ITERATION:

    HEAD CHANGE   HEAD CHANGE   HEAD CHANGE   HEAD CHANGE   HEAD CHANGE
  LAYER,ROW,COL LAYER,ROW,COL LAYER,ROW,COL LAYER,ROW,COL LAYER,ROW,COL
 ----------------------------------------------------------------------
     -1.931        -1.987        -2.935        -1.853        0.5227    
  (  2,  3,  6) (  3,  1, 10) (  3,  1,  1) (  3,  8,  1) (  3,  1,  1)
    -0.3121        0.1531        0.4030        0.4939        0.1624    
  (  2,  5,  1) (  3, 10, 10) (  3, 10,  1) (  3, 10, 10) (  3,  1,  1)
     0.3400E-01    0.4292E-01    0.6964E-01    0.6489E-01    0.2541E-01
  (  2,  4,  1) (  3,  1, 10) (  3,  1,  1) (  3,  8,  1) (  3,  5,  1)
     0.4264E-02    0.6232E-02    0.1070E-01    0.8515E-02    0.3214E-02
  (  3,  2,  6) (  3,  1,  1) (  3,  1,  4) (  3,  4,  1) (  3,  1,  4)
     0.1015E-02    0.1017E-02    0.1372E-02    0.1113E-02    0.4479E-03
  (  2,  8,  1) (  3,  1, 10) (  3,  1,  1) (  3,  1,  2) (  3,  4,  1)
    -0.1223E-03    0.1658E-03    0.2831E-03    0.1775E-03    0.9833E-04
  (  2,  2,  1) (  3,  1,  1) (  3,  1,  4) (  3,  4,  1) (  3,  1,  4)
     0.3928E-04    0.4012E-04    0.4633E-04    0.4350E-04   -0.2697E-04
  (  2,  8,  1) (  3,  1, 10) (  3,  1,  9) (  3,  1,  2) (  3, 10,  2)
    -0.6490E-05
  (  3, 10,  1)


 OUTPUT CONTROL FOR STRESS PERIOD    2   TIME STEP    3
    PRINT HEAD FOR ALL LAYERS
    PRINT BUDGET
    SAVE HEAD FOR ALL LAYERS
1
              HEAD IN LAYER   1 AT END OF TIME STEP   3 IN STRESS PERIOD    2
  ---------------------------------------------------------------------------

           1       2       3       4       5       6       7       8       9      10
 ...................................................................................
   1    22.65   22.30   21.65   21.23   21.03   21.03   21.23   21.65   22.30   22.65
   2    21.61   21.11   20.70   20.41   20.26   20.25   20.40   20.70   21.11   21.61
   3    20.10   19.62   19.25   19.01   18.89   18.89   19.01   19.25   19.61   20.10
   4    18.04   17.61   17.31   17.13   17.04   17.04   17.13   17.31   17.61   18.03
   5    15.11   15.02   14.92   14.84   14.80   14.80   14.84   14.92   15.02   15.10
   6    12.46   12.43   12.39   12.36   12.34   12.34   12.36   12.39   12.43   12.46
   7     9.86    9.84    9.80    9.76    9.74    9.73    9.76    9.80    9.84    9.86
   8     7.29    7.23    7.13    7.02    6.96    6.96    7.02    7.13    7.23    7.29
   9     4.88    4.70    4.38    4.01    3.86    3.86    4.01    4.38    4.70    4.88
  10     3.13    2.67    1.69    0.00    0.00    0.00    0.00    1.69    2.67    3.13
1
              HEAD IN LAYER   2 AT END OF TIME STEP   3 IN STRESS PERIOD    2
  ---------------------------------------------------------------------------

           1       2       3       4       5       6       7       8       9      10
 ...................................................................................
   1     9.71    9.74    9.75    9.75    9.74    9.73    9.71    9.68    9.65    9.60
   2     9.56   11.12   10.98   10.58   10.18    9.88    9.92   10.20   10.37    9.39
   3     9.34   10.49   10.20    9.53    8.58    7.29    7.64    8.74    9.39    9.13
   4     9.08    9.93    9.68    9.19    8.55    7.83    7.97    8.59    9.02    8.87
   5     8.79    9.35    9.26    9.03    8.80    8.61    8.60    8.72    8.80    8.59
   6     8.49    8.77    8.72    8.63    8.53    8.46    8.44    8.45    8.46    8.31
   7     8.16    8.08    8.00    7.95    7.90    7.86    7.85    7.87    7.91    8.02
   8     7.84    7.27    7.09    7.01    6.97    6.95    6.97    7.02    7.17    7.73
   9     7.53    6.41    6.07    5.88    5.79    5.78    5.85    6.03    6.35    7.46
  10     7.25    7.19    7.13    7.09    7.07    7.07    7.08    7.11    7.16    7.21
1
              HEAD IN LAYER   3 AT END OF TIME STEP   3 IN STRESS PERIOD    2
  ---------------------------------------------------------------------------

           1       2       3       4       5       6       7       8       9      10
 ...................................................................................
   1    -1.69   -1.84   -2.12   -2.49   -2.88   -3.19   -3.34   -3.34   -3.28   -3.22
   2    -1.77   -1.99   -2.45   -3.10   -3.87   -4.55   -4.63   -4.28   -3.92   -3.72
   3    -1.59   -1.93   -2.67   -3.92   -5.89   -9.04   -8.29   -5.95   -4.66   -4.08
   4    -0.67   -0.95   -1.55   -2.49   -3.83   -5.61   -5.34   -4.05   -3.22   -2.82
   5     0.80    0.64    0.32   -0.11   -0.61   -1.04   -1.12   -0.94   -0.73   -0.60
   6     2.34    2.26    2.12    1.93    1.73    1.57    1.49    1.48    1.51    1.53
   7     3.68    3.65    3.58    3.50    3.41    3.33    3.28    3.25    3.24    3.23
   8     4.71    4.69    4.66    4.62    4.57    4.53    4.50    4.48    4.47    4.46
   9     5.40    5.38    5.37    5.34    5.32    5.29    5.28    5.26    5.25    5.25
  10     5.74    5.73    5.72    5.71    5.69    5.67    5.66    5.65    5.64    5.64

 HEAD WILL BE SAVED ON UNIT   21 AT END OF TIME STEP    3, STRESS PERIOD    2
1
  VOLUMETRIC BUDGET FOR ENTIRE MODEL AT END OF TIME STEP    3, STRESS PERIOD   2
  ------------------------------------------------------------------------------

     CUMULATIVE VOLUMES      L**3       RATES FOR THIS TIME STEP      L**3/T
     ------------------                 ------------------------

           IN:                                      IN:
           ---                                      ---
             STORAGE =      897659.0000               STORAGE =        7888.1509
       CONSTANT HEAD =           0.0000         CONSTANT HEAD =           0.0000
               WELLS =     3457901.5000                 WELLS =       30000.0000
    INST. IB STORAGE =     1291320.3750      INST. IB STORAGE =       11336.9053
    DELAY IB STORAGE =     1230217.3750      DELAY IB STORAGE =       10642.6543

            TOTAL IN =     6877098.0000              TOTAL IN =       59867.7109

          OUT:                                     OUT:
          ----                                     ----
             STORAGE =           0.0000               STORAGE =           0.0000
       CONSTANT HEAD =     3449198.7500         CONSTANT HEAD =       29867.6660
               WELLS =     3427901.5000                 WELLS =       30000.0000
    INST. IB STORAGE =           0.0000      INST. IB STORAGE =           0.0000
    DELAY IB STORAGE =           0.0000      DELAY IB STORAGE =           0.0000

           TOTAL OUT =     6877100.0000             TOTAL OUT =       59867.6641

            IN - OUT =          -2.0000              IN - OUT =       4.6875E-02

 PERCENT DISCREPANCY =          -0.00     PERCENT DISCREPANCY =           0.00






         TIME SUMMARY AT END OF TIME STEP    3 IN STRESS PERIOD    2
                    SECONDS     MINUTES      HOURS       DAYS        YEARS
                    -----------------------------------------------------------
   TIME STEP LENGTH 4.18152E+06  69692.      1161.5      48.397     0.13250    
 STRESS PERIOD TIME 9.87236E+06 1.64539E+05  2742.3      114.26     0.31284    
         TOTAL TIME 9.95876E+06 1.65979E+05  2766.3      115.26     0.31557    
1
 
 SOLVING FOR HEAD 
    39 ITERATIONS FOR TIME STEP   4 IN STRESS PERIOD    2

 MAXIMUM HEAD CHANGE FOR EACH ITERATION:

    HEAD CHANGE   HEAD CHANGE   HEAD CHANGE   HEAD CHANGE   HEAD CHANGE
  LAYER,ROW,COL LAYER,ROW,COL LAYER,ROW,COL LAYER,ROW,COL LAYER,ROW,COL
 ----------------------------------------------------------------------
     -1.675        -1.613        -2.501        -1.617        0.4173    
  (  2,  3,  6) (  3,  1, 10) (  3, 10, 10) (  3, 10,  1) (  2,  1,  1)
    -0.3473        0.1077        0.2769        0.3554        0.6902E-01
  (  2,  5,  1) (  3, 10,  3) (  3, 10,  1) (  3, 10, 10) (  3,  1,  1)
     0.3167E-01    0.2325E-01    0.5781E-01    0.6173E-01    0.2816E-01
  (  2,  4,  1) (  3,  1,  4) (  3, 10, 10) (  3, 10,  1) (  3,  8,  1)
     0.4393E-02    0.6793E-02    0.8347E-02    0.1102E-01    0.3427E-02
  (  3,  1,  5) (  3,  1,  1) (  3,  1,  2) (  3,  7,  1) (  3,  1,  1)
     0.8188E-03    0.1359E-02    0.1992E-02    0.1852E-02    0.9288E-03
  (  2,  5,  1) (  3,  1,  8) (  3,  5,  2) (  3, 10,  1) (  3,  6,  1)
     0.2067E-03    0.3414E-03    0.4386E-03    0.4000E-03    0.1796E-03
  (  3,  1,  5) (  3,  1,  1) (  3,  1,  2) (  3,  5,  1) (  3,  1,  1)
     0.4922E-04    0.8253E-04    0.8632E-04    0.7172E-04    0.5118E-04
  (  2,  7,  1) (  3,  1, 10) (  3,  1,  1) (  3,  1,  1) (  3,  6,  1)
     0.1223E-04    0.1312E-04    0.1596E-04    0.8596E-05
  (  3,  1,  5) (  3,  1,  1) (  3,  1,  1) (  3,  4,  1)


 OUTPUT CONTROL FOR STRESS PERIOD    2   TIME STEP    4
    PRINT HEAD FOR ALL LAYERS
    PRINT BUDGET
    SAVE HEAD FOR ALL LAYERS
1
              HEAD IN LAYER   1 AT END OF TIME STEP   4 IN STRESS PERIOD    2
  ---------------------------------------------------------------------------

           1       2       3       4       5       6       7       8       9      10
 ...................................................................................
   1    22.63   22.29   21.63   21.22   21.02   21.02   21.22   21.63   22.29   22.63
   2    21.60   21.10   20.68   20.39   20.24   20.24   20.39   20.68   21.10   21.59
   3    20.09   19.60   19.24   19.00   18.87   18.87   18.99   19.23   19.60   20.09
   4    18.02   17.59   17.30   17.11   17.02   17.02   17.11   17.30   17.59   18.02
   5    15.09   15.01   14.91   14.83   14.78   14.78   14.82   14.90   15.00   15.09
   6    12.45   12.42   12.38   12.35   12.33   12.32   12.35   12.38   12.42   12.45
   7     9.85    9.83    9.79    9.75    9.72    9.72    9.75    9.79    9.83    9.85
   8     7.28    7.22    7.12    7.01    6.95    6.95    7.01    7.12    7.22    7.28
   9     4.88    4.69    4.37    4.00    3.85    3.85    4.00    4.37    4.69    4.87
  10     3.12    2.67    1.69    0.00    0.00    0.00    0.00    1.69    2.67    3.12
1
              HEAD IN LAYER   2 AT END OF TIME STEP   4 IN STRESS PERIOD    2
  ---------------------------------------------------------------------------

           1       2       3       4       5       6       7       8       9      10
 ...................................................................................
   1     7.50    7.53    7.54    7.55    7.54    7.53    7.51    7.49    7.46    7.42
   2     7.34    8.76    8.62    8.24    7.87    7.61    7.67    7.95    8.12    7.21
   3     7.13    8.17    7.88    7.26    6.39    5.08    5.47    6.60    7.23    6.97
   4     6.87    7.64    7.39    6.92    6.32    5.64    5.80    6.39    6.83    6.70
   5     6.59    7.10    7.01    6.79    6.57    6.39    6.38    6.50    6.60    6.42
   6     6.28    6.57    6.53    6.44    6.35    6.28    6.26    6.27    6.28    6.14
   7     5.96    5.94    5.88    5.83    5.78    5.74    5.73    5.75    5.78    5.85
   8     5.64    5.18    5.03    4.96    4.91    4.89    4.91    4.96    5.08    5.55
   9     5.34    4.35    4.05    3.86    3.77    3.76    3.83    4.00    4.29    5.28
  10     5.06    5.00    4.95    4.91    4.89    4.89    4.90    4.93    4.97    5.03
1
              HEAD IN LAYER   3 AT END OF TIME STEP   4 IN STRESS PERIOD    2
  ---------------------------------------------------------------------------

           1       2       3       4       5       6       7       8       9      10
 ...................................................................................
   1    -5.46   -5.57   -5.79   -6.06   -6.35   -6.57   -6.66   -6.65   -6.60   -6.56
   2    -5.47   -5.65   -5.99   -6.49   -7.05   -7.54   -7.54   -7.25   -7.00   -6.85
   3    -5.25   -5.52   -6.10   -7.06   -8.60  -11.64  -10.75   -8.44   -7.42   -7.02
   4    -4.39   -4.62   -5.10   -5.85   -6.93   -8.38   -8.09   -7.01   -6.33   -6.01
   5    -3.05   -3.18   -3.44   -3.79   -4.19   -4.53   -4.57   -4.42   -4.24   -4.14
   6    -1.62   -1.69   -1.80   -1.96   -2.12   -2.25   -2.31   -2.31   -2.28   -2.26
   7    -0.36   -0.39   -0.44   -0.51   -0.58   -0.65   -0.69   -0.71   -0.72   -0.72
   8     0.63    0.61    0.59    0.55    0.52    0.48    0.46    0.44    0.43    0.42
   9     1.30    1.29    1.27    1.25    1.23    1.21    1.20    1.18    1.18    1.17
  10     1.64    1.63    1.62    1.61    1.59    1.58    1.57    1.56    1.55    1.55

 HEAD WILL BE SAVED ON UNIT   21 AT END OF TIME STEP    4, STRESS PERIOD    2
1
  VOLUMETRIC BUDGET FOR ENTIRE MODEL AT END OF TIME STEP    4, STRESS PERIOD   2
  ------------------------------------------------------------------------------

     CUMULATIVE VOLUMES      L**3       RATES FOR THIS TIME STEP      L**3/T
     ------------------                 ------------------------

           IN:                                      IN:
           ---                                      ---
             STORAGE =     1355290.5000               STORAGE =        7273.6372
       CONSTANT HEAD =           0.0000         CONSTANT HEAD =           0.0000
               WELLS =     5345395.0000                 WELLS =       30000.0000
    INST. IB STORAGE =     2108042.0000      INST. IB STORAGE =       12981.0488
    DELAY IB STORAGE =     1827204.5000      DELAY IB STORAGE =        9488.5684

            TOTAL IN =    10635932.0000              TOTAL IN =       59743.2539

          OUT:                                     OUT:
          ----                                     ----
             STORAGE =           0.0000               STORAGE =           0.0000
       CONSTANT HEAD =     5320536.5000         CONSTANT HEAD =       29743.2207
               WELLS =     5315395.0000                 WELLS =       30000.0000
    INST. IB STORAGE =           0.0000      INST. IB STORAGE =           0.0000
    DELAY IB STORAGE =           0.0000      DELAY IB STORAGE =           0.0000

           TOTAL OUT =    10635932.0000             TOTAL OUT =       59743.2188

            IN - OUT =           0.0000              IN - OUT =       3.5156E-02

 PERCENT DISCREPANCY =           0.00     PERCENT DISCREPANCY =           0.00






         TIME SUMMARY AT END OF TIME STEP    4 IN STRESS PERIOD    2
                    SECONDS     MINUTES      HOURS       DAYS        YEARS
                    -----------------------------------------------------------
   TIME STEP LENGTH 5.43598E+06  90600.      1510.0      62.916     0.17226    
 STRESS PERIOD TIME 1.53083E+07 2.55139E+05  4252.3      177.18     0.48509    
         TOTAL TIME 1.53947E+07 2.56579E+05  4276.3      178.18     0.48783    
1
 
 SOLVING FOR HEAD 
    36 ITERATIONS FOR TIME STEP   5 IN STRESS PERIOD    2

 MAXIMUM HEAD CHANGE FOR EACH ITERATION:

    HEAD CHANGE   HEAD CHANGE   HEAD CHANGE   HEAD CHANGE   HEAD CHANGE
  LAYER,ROW,COL LAYER,ROW,COL LAYER,ROW,COL LAYER,ROW,COL LAYER,ROW,COL
 ----------------------------------------------------------------------
     -1.254       -0.9223        -2.121        -1.316        0.4553    
  (  2,  3,  6) (  3, 10,  1) (  3, 10, 10) (  3, 10,  1) (  2,  1, 10)
    -0.3804        0.7587E-01    0.2027        0.2451        0.4663E-01
  (  2,  1, 10) (  3, 10,  3) (  3, 10,  1) (  3, 10, 10) (  3, 10, 10)
     0.3533E-01    0.2475E-01    0.4539E-01    0.4678E-01    0.1966E-01
  (  2,  3,  1) (  2,  1,  2) (  3, 10, 10) (  3, 10,  1) (  3, 10,  1)
     0.8231E-02    0.2755E-02    0.4820E-02    0.7939E-02    0.1364E-02
  (  2,  2,  1) (  3,  1,  1) (  3, 10,  1) (  3, 10, 10) (  3, 10, 10)
    -0.4108E-03    0.4956E-03    0.1587E-02    0.1646E-02    0.7293E-03
  (  2,  9,  1) (  3, 10,  1) (  3, 10, 10) (  3, 10,  1) (  3,  9,  1)
     0.1816E-03    0.1220E-03    0.9418E-04    0.2542E-03    0.9428E-04
  (  2,  2,  1) (  3,  1,  1) (  3,  9,  9) (  3,  8,  1) (  3, 10,  1)
    -0.2348E-04    0.2663E-04    0.5910E-04    0.8924E-04    0.4702E-04
  (  2,  9,  1) (  3,  2,  1) (  3,  7,  2) (  3, 10,  1) (  3,  9,  1)
    -0.7345E-05
  (  2,  8,  1)


 OUTPUT CONTROL FOR STRESS PERIOD    2   TIME STEP    5
    PRINT HEAD FOR ALL LAYERS
    PRINT BUDGET
    SAVE HEAD FOR ALL LAYERS
1
              HEAD IN LAYER   1 AT END OF TIME STEP   5 IN STRESS PERIOD    2
  ---------------------------------------------------------------------------

           1       2       3       4       5       6       7       8       9      10
 ...................................................................................
   1    22.61   22.27   21.61   21.20   20.99   20.99   21.20   21.61   22.26   22.61
   2    21.57   21.08   20.66   20.37   20.22   20.22   20.36   20.66   21.08   21.57
   3    20.07   19.58   19.22   18.97   18.85   18.85   18.97   19.21   19.57   20.06
   4    18.00   17.57   17.28   17.09   17.00   17.00   17.09   17.27   17.57   18.00
   5    15.07   14.99   14.88   14.80   14.76   14.76   14.80   14.88   14.98   15.07
   6    12.43   12.40   12.36   12.33   12.31   12.30   12.33   12.36   12.40   12.43
   7     9.83    9.81    9.77    9.73    9.71    9.71    9.73    9.77    9.81    9.83
   8     7.26    7.20    7.10    7.00    6.94    6.94    7.00    7.10    7.20    7.26
   9     4.86    4.68    4.36    3.99    3.84    3.84    3.99    4.36    4.68    4.86
  10     3.11    2.65    1.68    0.00    0.00    0.00    0.00    1.68    2.65    3.11
1
              HEAD IN LAYER   2 AT END OF TIME STEP   5 IN STRESS PERIOD    2
  ---------------------------------------------------------------------------

           1       2       3       4       5       6       7       8       9      10
 ...................................................................................
   1     6.03    6.06    6.09    6.10    6.10    6.10    6.08    6.06    6.03    5.99
   2     5.82    7.32    7.23    6.92    6.61    6.37    6.45    6.77    6.95    5.75
   3     5.55    6.68    6.45    5.89    5.00    3.64    4.07    5.30    5.99    5.46
   4     5.24    6.04    5.84    5.44    4.90    4.22    4.40    5.05    5.47    5.14
   5     4.89    5.37    5.29    5.10    4.90    4.74    4.75    4.88    4.99    4.80
   6     4.53    4.72    4.69    4.60    4.52    4.47    4.46    4.48    4.50    4.44
   7     4.16    4.01    3.95    3.89    3.85    3.83    3.82    3.84    3.88    4.09
   8     3.80    3.18    3.04    2.96    2.92    2.91    2.93    2.98    3.11    3.74
   9     3.46    2.32    2.02    1.83    1.75    1.74    1.81    1.98    2.28    3.42
  10     3.15    3.08    3.03    2.99    2.96    2.96    2.98    3.01    3.06    3.13
1
              HEAD IN LAYER   3 AT END OF TIME STEP   5 IN STRESS PERIOD    2
  ---------------------------------------------------------------------------

           1       2       3       4       5       6       7       8       9      10
 ...................................................................................
   1    -6.92   -6.97   -7.06   -7.18   -7.31   -7.41   -7.42   -7.35   -7.27   -7.22
   2    -6.98   -7.07   -7.26   -7.57   -8.02   -8.50   -8.43   -8.02   -7.67   -7.49
   3    -6.92   -7.10   -7.51   -8.35  -10.05  -13.27  -12.30   -9.70   -8.40   -7.86
   4    -6.41   -6.58   -6.94   -7.51   -8.43   -9.96   -9.58   -8.32   -7.64   -7.33
   5    -5.50   -5.60   -5.80   -6.08   -6.42   -6.72   -6.73   -6.52   -6.32   -6.21
   6    -4.46   -4.51   -4.60   -4.73   -4.85   -4.95   -4.99   -4.97   -4.93   -4.90
   7    -3.51   -3.53   -3.57   -3.63   -3.69   -3.73   -3.76   -3.77   -3.77   -3.76
   8    -2.75   -2.76   -2.79   -2.81   -2.84   -2.86   -2.88   -2.89   -2.90   -2.90
   9    -2.23   -2.24   -2.25   -2.27   -2.29   -2.30   -2.31   -2.32   -2.32   -2.32
  10    -1.97   -1.97   -1.98   -1.99   -2.00   -2.01   -2.02   -2.03   -2.03   -2.03

 HEAD WILL BE SAVED ON UNIT   21 AT END OF TIME STEP    5, STRESS PERIOD    2
1
  VOLUMETRIC BUDGET FOR ENTIRE MODEL AT END OF TIME STEP    5, STRESS PERIOD   2
  ------------------------------------------------------------------------------

     CUMULATIVE VOLUMES      L**3       RATES FOR THIS TIME STEP      L**3/T
     ------------------                 ------------------------

           IN:                                      IN:
           ---                                      ---
             STORAGE =     1877064.7500               STORAGE =        6379.3296
       CONSTANT HEAD =           0.0000         CONSTANT HEAD =           0.0000
               WELLS =     7799136.5000                 WELLS =       30000.0000
    INST. IB STORAGE =     3241614.5000      INST. IB STORAGE =       13859.3125
    DELAY IB STORAGE =     2591406.7500      DELAY IB STORAGE =        9343.3096

            TOTAL IN =    15509223.0000              TOTAL IN =       59581.9492

          OUT:                                     OUT:
          ----                                     ----
             STORAGE =           0.0000               STORAGE =           0.0000
       CONSTANT HEAD =     7740081.0000         CONSTANT HEAD =       29581.9004
               WELLS =     7769136.5000                 WELLS =       30000.0000
    INST. IB STORAGE =           0.0000      INST. IB STORAGE =           0.0000
    DELAY IB STORAGE =           0.0000      DELAY IB STORAGE =           0.0000

           TOTAL OUT =    15509218.0000             TOTAL OUT =       59581.8984

            IN - OUT =           5.0000              IN - OUT =       5.0781E-02

 PERCENT DISCREPANCY =           0.00     PERCENT DISCREPANCY =           0.00






         TIME SUMMARY AT END OF TIME STEP    5 IN STRESS PERIOD    2
                    SECONDS     MINUTES      HOURS       DAYS        YEARS
                    -----------------------------------------------------------
   TIME STEP LENGTH 7.06678E+06 1.17780E+05  1963.0      81.791     0.22393    
 STRESS PERIOD TIME 2.23751E+07 3.72919E+05  6215.3      258.97     0.70902    
         TOTAL TIME 2.24615E+07 3.74359E+05  6239.3      259.97     0.71176    
1
 
 SOLVING FOR HEAD 
    37 ITERATIONS FOR TIME STEP   6 IN STRESS PERIOD    2

 MAXIMUM HEAD CHANGE FOR EACH ITERATION:

    HEAD CHANGE   HEAD CHANGE   HEAD CHANGE   HEAD CHANGE   HEAD CHANGE
  LAYER,ROW,COL LAYER,ROW,COL LAYER,ROW,COL LAYER,ROW,COL LAYER,ROW,COL
 ----------------------------------------------------------------------
    -0.8224       -0.6389        -1.437       -0.8162        0.3132    
  (  3,  3,  6) (  3, 10,  1) (  3, 10, 10) (  3, 10,  1) (  2,  1, 10)
    -0.2834        0.4135E-01    0.1175        0.1428        0.2483E-01
  (  2,  1, 10) (  3, 10, 10) (  3, 10,  1) (  3, 10, 10) (  3, 10, 10)
     0.2371E-01    0.1619E-01    0.2717E-01    0.2726E-01    0.9369E-02
  (  2,  3,  1) (  2,  1,  2) (  3, 10, 10) (  3, 10,  1) (  3, 10,  1)
     0.5759E-02    0.1525E-02    0.4091E-02    0.5331E-02    0.1035E-02
  (  2,  2,  1) (  3, 10, 10) (  3, 10,  1) (  3, 10, 10) (  3, 10, 10)
     0.4944E-03    0.4032E-03    0.1171E-02    0.1135E-02    0.4202E-03
  (  2,  3,  1) (  3, 10,  1) (  3, 10, 10) (  3, 10,  1) (  3, 10,  1)
     0.2443E-03   -0.6581E-04    0.1582E-03    0.2353E-03    0.6191E-04
  (  2,  3,  1) (  3,  3,  6) (  3, 10,  1) (  3, 10,  6) (  3, 10,  1)
    -0.3339E-04   -0.2555E-04    0.3560E-04    0.5262E-04    0.3739E-04
  (  2,  9,  1) (  3,  3,  6) (  3, 10,  3) (  3, 10,  1) (  3, 10,  1)
     0.1287E-04   -0.4437E-05
  (  2,  3,  1) (  2, 10,  2)


 OUTPUT CONTROL FOR STRESS PERIOD    2   TIME STEP    6
    PRINT BUDGET
    PRINT HEAD FOR ALL LAYERS
    SAVE HEAD FOR ALL LAYERS
    SAVE DRAWDOWN FOR ALL LAYERS
1
              HEAD IN LAYER   1 AT END OF TIME STEP   6 IN STRESS PERIOD    2
  ---------------------------------------------------------------------------

           1       2       3       4       5       6       7       8       9      10
 ...................................................................................
   1    22.58   22.23   21.58   21.16   20.96   20.96   21.16   21.58   22.23   22.58
   2    21.54   21.05   20.63   20.33   20.18   20.18   20.33   20.63   21.04   21.54
   3    20.03   19.55   19.18   18.94   18.82   18.82   18.94   19.18   19.54   20.03
   4    17.97   17.54   17.25   17.06   16.97   16.97   17.06   17.24   17.54   17.97
   5    15.04   14.95   14.85   14.77   14.73   14.73   14.77   14.85   14.95   15.04
   6    12.40   12.37   12.33   12.30   12.28   12.28   12.30   12.33   12.37   12.40
   7     9.81    9.78    9.74    9.70    9.68    9.68    9.70    9.74    9.78    9.80
   8     7.24    7.18    7.08    6.97    6.91    6.91    6.97    7.07    7.18    7.24
   9     4.84    4.66    4.34    3.97    3.82    3.82    3.97    4.34    4.66    4.84
  10     3.09    2.64    1.67    0.00    0.00    0.00    0.00    1.67    2.64    3.09
1
              HEAD IN LAYER   2 AT END OF TIME STEP   6 IN STRESS PERIOD    2
  ---------------------------------------------------------------------------

           1       2       3       4       5       6       7       8       9      10
 ...................................................................................
   1     5.13    5.18    5.21    5.22    5.22    5.22    5.20    5.17    5.14    5.08
   2     4.89    6.63    6.55    6.22    5.87    5.61    5.71    6.04    6.22    4.81
   3     4.58    5.93    5.69    5.08    4.11    2.70    3.15    4.45    5.17    4.48
   4     4.22    5.18    4.99    4.57    3.99    3.28    3.47    4.16    4.61    4.11
   5     3.81    4.31    4.25    4.08    3.90    3.77    3.79    3.93    4.02    3.71
   6     3.39    3.49    3.45    3.38    3.31    3.27    3.26    3.29    3.32    3.30
   7     2.96    2.64    2.56    2.51    2.47    2.45    2.45    2.47    2.54    2.89
   8     2.55    1.71    1.54    1.46    1.42    1.41    1.43    1.49    1.65    2.49
   9     2.16    0.78    0.45    0.26    0.18    0.18    0.25    0.42    0.75    2.12
  10     1.81    1.74    1.68    1.64    1.61    1.61    1.63    1.67    1.73    1.80
1
              HEAD IN LAYER   3 AT END OF TIME STEP   6 IN STRESS PERIOD    2
  ---------------------------------------------------------------------------

           1       2       3       4       5       6       7       8       9      10
 ...................................................................................
   1    -7.24   -7.31   -7.45   -7.64   -7.85   -8.00   -8.02   -7.94   -7.83   -7.76
   2    -7.36   -7.50   -7.79   -8.25   -8.83   -9.37   -9.31   -8.86   -8.45   -8.23
   3    -7.46   -7.70   -8.26   -9.31  -11.18  -14.49  -13.52  -10.83   -9.42   -8.81
   4    -7.25   -7.41   -7.79   -8.49   -9.59  -11.20  -10.82   -9.47   -8.65   -8.26
   5    -6.78   -6.87   -7.04   -7.29   -7.58   -7.84   -7.82   -7.63   -7.44   -7.33
   6    -6.13   -6.17   -6.25   -6.36   -6.47   -6.55   -6.57   -6.55   -6.50   -6.48
   7    -5.51   -5.53   -5.57   -5.61   -5.66   -5.69   -5.71   -5.72   -5.71   -5.71
   8    -5.00   -5.02   -5.03   -5.06   -5.08   -5.10   -5.11   -5.12   -5.12   -5.12
   9    -4.66   -4.66   -4.67   -4.69   -4.70   -4.71   -4.72   -4.72   -4.73   -4.73
  10    -4.48   -4.48   -4.49   -4.49   -4.50   -4.51   -4.52   -4.52   -4.52   -4.53

 HEAD WILL BE SAVED ON UNIT   21 AT END OF TIME STEP    6, STRESS PERIOD    2

 DRAWDOWN WILL BE SAVED ON UNIT   22 AT END OF TIME STEP    6, STRESS PERIOD    2
1
  VOLUMETRIC BUDGET FOR ENTIRE MODEL AT END OF TIME STEP    6, STRESS PERIOD   2
  ------------------------------------------------------------------------------

     CUMULATIVE VOLUMES      L**3       RATES FOR THIS TIME STEP      L**3/T
     ------------------                 ------------------------

           IN:                                      IN:
           ---                                      ---
             STORAGE =     2509964.5000               STORAGE =        5952.2891
       CONSTANT HEAD =           0.0000         CONSTANT HEAD =           0.0000
               WELLS =    10989000.0000                 WELLS =       30000.0000
    INST. IB STORAGE =     4623837.5000      INST. IB STORAGE =       12999.5166
    DELAY IB STORAGE =     3701528.0000      DELAY IB STORAGE =       10440.4570

            TOTAL IN =    21824330.0000              TOTAL IN =       59392.2617

          OUT:                                     OUT:
          ----                                     ----
             STORAGE =           0.0000               STORAGE =           0.0000
       CONSTANT HEAD =    10865329.0000         CONSTANT HEAD =       29392.3066
               WELLS =    10959000.0000                 WELLS =       30000.0000
    INST. IB STORAGE =           0.0000      INST. IB STORAGE =           0.0000
    DELAY IB STORAGE =           0.0000      DELAY IB STORAGE =           0.0000

           TOTAL OUT =    21824328.0000             TOTAL OUT =       59392.3047

            IN - OUT =           2.0000              IN - OUT =      -4.2969E-02

 PERCENT DISCREPANCY =           0.00     PERCENT DISCREPANCY =          -0.00






         TIME SUMMARY AT END OF TIME STEP    6 IN STRESS PERIOD    2
                    SECONDS     MINUTES      HOURS       DAYS        YEARS
                    -----------------------------------------------------------
   TIME STEP LENGTH 9.18681E+06 1.53113E+05  2551.9      106.33     0.29111    
 STRESS PERIOD TIME 3.15619E+07 5.26032E+05  8767.2      365.30      1.0001    
         TOTAL TIME 3.16483E+07 5.27472E+05  8791.2      366.30      1.0029    
1

                               VOLUMETRIC BUDGET FOR SYSTEMS OF DELAY INTERBEDS
                                          AT END OF TIME STEP  6 IN STRESS PERIOD  2

          |   C U M U L A T I V E   V O L U M E S   L**3           | R A T E S   F O R  T H I S  T I M E  S T E P   L**3/T  |
   SYSTEM |    CHANGE IN     BOUNDARY                    PERCENT   |    CHANGE IN     BOUNDARY                    PERCENT   |
   NUMBER |     STORAGE        FLOW           SUM      DISCREPANCY |     STORAGE        FLOW           SUM      DISCREPANCY |
  --------|--------------------------------------------------------|--------------------------------------------------------|
      1     3287.8        -3287.8         0.0000         0.0000         12.994        -12.994       -0.95367E-06   -0.73396E-05
      2    0.36982E+07   -0.36982E+07    0.75000        0.20280E-04     10427.        -10427.        0.58594E-02    0.56192E-04
  --------|--------------------------------------------------------|--------------------------------------------------------|
 TOTALS:    0.37015E+07   -0.37015E+07    0.75000        0.20262E-04     10440.        -10440.        0.58594E-02    0.56122E-04
1
                            STRESS PERIOD NO.    3, LENGTH =   365.3000    
                            -----------------------------------------------

                              NUMBER OF TIME STEPS =     6

                               MULTIPLIER FOR DELT =     1.300

                            INITIAL TIME STEP SIZE =   28.63744    

 REUSING NON-PARAMETER WELLS FROM LAST STRESS PERIOD

     14 WELLS
 
 SOLVING FOR HEAD 

    40 ITERATIONS FOR TIME STEP   1 IN STRESS PERIOD    3

 MAXIMUM HEAD CHANGE FOR EACH ITERATION:

    HEAD CHANGE   HEAD CHANGE   HEAD CHANGE   HEAD CHANGE   HEAD CHANGE
  LAYER,ROW,COL LAYER,ROW,COL LAYER,ROW,COL LAYER,ROW,COL LAYER,ROW,COL
 ----------------------------------------------------------------------
     0.8460        0.4707       -0.7980       -0.3371        0.1422    
  (  3,  3,  7) (  3,  3,  8) (  3,  3,  7) (  3,  3,  7) (  3,  2, 10)
    -0.8956E-01   -0.3802E-01   -0.4460E-01   -0.3215E-01   -0.2461E-01
  (  3,  3,  6) (  3,  4,  7) (  3,  3,  6) (  3,  3,  6) (  3,  3,  6)
    -0.1749E-01   -0.1570E-01   -0.1178E-01   -0.8628E-02   -0.6689E-02
  (  3,  3,  6) (  3,  3,  6) (  3,  3,  6) (  3,  3,  6) (  3,  3,  6)
    -0.4668E-02   -0.4236E-02   -0.3116E-02   -0.2356E-02   -0.1777E-02
  (  3,  3,  6) (  3,  3,  6) (  3,  3,  6) (  3,  3,  6) (  3,  3,  6)
    -0.1288E-02   -0.1123E-02   -0.8529E-03   -0.6282E-03   -0.4892E-03
  (  3,  3,  6) (  3,  3,  6) (  3,  3,  6) (  3,  3,  6) (  3,  3,  6)
    -0.3472E-03   -0.3073E-03   -0.2286E-03   -0.1737E-03   -0.1308E-03
  (  3,  3,  6) (  3,  3,  6) (  3,  3,  6) (  3,  3,  6) (  3,  3,  6)
    -0.9752E-04   -0.8230E-04   -0.6327E-04   -0.4699E-04   -0.3656E-04
  (  3,  3,  6) (  3,  3,  6) (  3,  3,  6) (  3,  3,  6) (  3,  3,  6)
    -0.2584E-04   -0.2208E-04   -0.1664E-04   -0.1036E-04   -0.6691E-05
  (  3,  3,  6) (  3,  3,  6) (  3,  3,  6) (  3,  3,  6) (  3,  3,  6)


 OUTPUT CONTROL FOR STRESS PERIOD    3   TIME STEP    1
    SAVE HEAD FOR ALL LAYERS

 HEAD WILL BE SAVED ON UNIT   21 AT END OF TIME STEP    1, STRESS PERIOD    3
 
 SOLVING FOR HEAD 
    39 ITERATIONS FOR TIME STEP   2 IN STRESS PERIOD    3

 MAXIMUM HEAD CHANGE FOR EACH ITERATION:

    HEAD CHANGE   HEAD CHANGE   HEAD CHANGE   HEAD CHANGE   HEAD CHANGE
  LAYER,ROW,COL LAYER,ROW,COL LAYER,ROW,COL LAYER,ROW,COL LAYER,ROW,COL
 ----------------------------------------------------------------------
     0.7597        0.2866       -0.6353       -0.2101       -0.1357    
  (  3,  3,  6) (  3,  2,  8) (  3,  3,  6) (  3,  3,  7) (  3,  3,  6)
    -0.4564E-01   -0.6029E-01   -0.4407E-01   -0.3223E-01   -0.2408E-01
  (  2,  4,  1) (  3,  3,  6) (  3,  3,  6) (  3,  3,  6) (  3,  3,  6)
    -0.1630E-01   -0.1554E-01   -0.1161E-01   -0.8306E-02   -0.6363E-02
  (  3,  3,  6) (  3,  3,  6) (  3,  3,  6) (  3,  3,  6) (  3,  3,  6)
    -0.4268E-02   -0.4087E-02   -0.2999E-02   -0.2214E-02   -0.1659E-02
  (  3,  3,  6) (  3,  3,  6) (  3,  3,  6) (  3,  3,  6) (  3,  3,  6)
    -0.1160E-02   -0.1058E-02   -0.8028E-03   -0.5802E-03   -0.4482E-03
  (  3,  3,  6) (  3,  3,  6) (  3,  3,  6) (  3,  3,  6) (  3,  3,  6)
    -0.3085E-03   -0.2842E-03   -0.2115E-03   -0.1586E-03   -0.1180E-03
  (  3,  3,  6) (  3,  3,  6) (  3,  3,  6) (  3,  3,  6) (  3,  3,  6)
    -0.8578E-04   -0.7492E-04   -0.5765E-04   -0.4227E-04   -0.3303E-04
  (  3,  3,  6) (  3,  3,  6) (  3,  3,  6) (  3,  3,  6) (  3,  3,  6)
    -0.2309E-04   -0.1950E-04   -0.1323E-04   -0.9575E-05
  (  3,  3,  6) (  3,  3,  6) (  3,  3,  6) (  3,  3,  6)


 OUTPUT CONTROL FOR STRESS PERIOD    3   TIME STEP    2
    SAVE HEAD FOR ALL LAYERS

 HEAD WILL BE SAVED ON UNIT   21 AT END OF TIME STEP    2, STRESS PERIOD    3
 
 SOLVING FOR HEAD 
    39 ITERATIONS FOR TIME STEP   3 IN STRESS PERIOD    3

 MAXIMUM HEAD CHANGE FOR EACH ITERATION:

    HEAD CHANGE   HEAD CHANGE   HEAD CHANGE   HEAD CHANGE   HEAD CHANGE
  LAYER,ROW,COL LAYER,ROW,COL LAYER,ROW,COL LAYER,ROW,COL LAYER,ROW,COL
 ----------------------------------------------------------------------
     0.6428       -0.1526       -0.5367        0.2545       -0.1307    
  (  3,  3,  6) (  3, 10,  1) (  3,  3,  7) (  3,  1, 10) (  3,  3,  6)
    -0.4216E-01   -0.5790E-01   -0.4428E-01   -0.3090E-01   -0.2290E-01
  (  2,  5,  1) (  3,  3,  6) (  3,  3,  6) (  3,  3,  6) (  3,  3,  6)
    -0.1456E-01   -0.1495E-01   -0.1118E-01   -0.7772E-02   -0.5857E-02
  (  3,  3,  6) (  3,  3,  6) (  3,  3,  6) (  3,  3,  6) (  3,  3,  6)
    -0.3749E-02   -0.3809E-02   -0.2819E-02   -0.2014E-02   -0.1498E-02
  (  3,  3,  6) (  3,  3,  6) (  3,  3,  6) (  3,  3,  6) (  3,  3,  6)
    -0.1003E-02   -0.9646E-03   -0.7349E-03   -0.5190E-03   -0.3971E-03
  (  3,  3,  6) (  3,  3,  6) (  3,  3,  6) (  3,  3,  6) (  3,  3,  6)
    -0.2637E-03   -0.2534E-03   -0.1906E-03   -0.1404E-03   -0.1034E-03
  (  3,  3,  6) (  3,  3,  6) (  3,  3,  6) (  3,  3,  6) (  3,  3,  6)
    -0.7300E-04   -0.6647E-04   -0.5191E-04   -0.3682E-04   -0.2861E-04
  (  3,  3,  6) (  3,  3,  6) (  3,  3,  6) (  3,  3,  6) (  3,  3,  6)
    -0.1937E-04   -0.1556E-04   -0.1230E-04   -0.8268E-05
  (  3,  3,  6) (  3,  3,  6) (  3,  3,  6) (  3,  3,  6)


 OUTPUT CONTROL FOR STRESS PERIOD    3   TIME STEP    3
    SAVE HEAD FOR ALL LAYERS

 HEAD WILL BE SAVED ON UNIT   21 AT END OF TIME STEP    3, STRESS PERIOD    3
 
 SOLVING FOR HEAD 
    38 ITERATIONS FOR TIME STEP   4 IN STRESS PERIOD    3

 MAXIMUM HEAD CHANGE FOR EACH ITERATION:

    HEAD CHANGE   HEAD CHANGE   HEAD CHANGE   HEAD CHANGE   HEAD CHANGE
  LAYER,ROW,COL LAYER,ROW,COL LAYER,ROW,COL LAYER,ROW,COL LAYER,ROW,COL
 ----------------------------------------------------------------------
     0.4684       -0.1157       -0.3890       -0.5103E-01   -0.8466E-01
  (  3,  3,  6) (  3, 10,  1) (  3,  3,  7) (  3, 10,  1) (  3,  3,  6)
    -0.4859E-01   -0.5739E-01   -0.4271E-01   -0.2834E-01   -0.2050E-01
  (  3,  3,  6) (  3,  3,  6) (  3,  3,  7) (  3,  3,  6) (  3,  3,  6)
    -0.1224E-01   -0.1353E-01   -0.1033E-01   -0.6862E-02   -0.5119E-02
  (  3,  3,  6) (  3,  3,  6) (  3,  3,  6) (  3,  3,  6) (  3,  3,  6)
    -0.3083E-02   -0.3344E-02   -0.2519E-02   -0.1746E-02   -0.1274E-02
  (  3,  3,  6) (  3,  3,  6) (  3,  3,  6) (  3,  3,  6) (  3,  3,  6)
    -0.8188E-03   -0.8261E-03   -0.6439E-03   -0.4391E-03   -0.3341E-03
  (  3,  3,  6) (  3,  3,  6) (  3,  3,  6) (  3,  3,  6) (  3,  3,  6)
    -0.2133E-03   -0.2140E-03   -0.1653E-03   -0.1183E-03   -0.8513E-04
  (  3,  3,  6) (  3,  3,  6) (  3,  3,  6) (  3,  3,  6) (  3,  3,  6)
    -0.5941E-04   -0.5609E-04   -0.4555E-04   -0.3140E-04   -0.2372E-04
  (  3,  3,  6) (  3,  3,  6) (  3,  3,  6) (  3,  3,  6) (  3,  3,  6)
    -0.1593E-04   -0.1253E-04   -0.9578E-05
  (  3,  3,  6) (  3,  3,  6) (  3,  3,  6)


 OUTPUT CONTROL FOR STRESS PERIOD    3   TIME STEP    4
    SAVE HEAD FOR ALL LAYERS

 HEAD WILL BE SAVED ON UNIT   21 AT END OF TIME STEP    4, STRESS PERIOD    3
 
 SOLVING FOR HEAD 
    38 ITERATIONS FOR TIME STEP   5 IN STRESS PERIOD    3

 MAXIMUM HEAD CHANGE FOR EACH ITERATION:

    HEAD CHANGE   HEAD CHANGE   HEAD CHANGE   HEAD CHANGE   HEAD CHANGE
  LAYER,ROW,COL LAYER,ROW,COL LAYER,ROW,COL LAYER,ROW,COL LAYER,ROW,COL
 ----------------------------------------------------------------------
     0.2632       -0.1563       -0.2196       -0.7019E-01   -0.7279E-01
  (  3,  3,  6) (  3,  3,  7) (  3,  3,  6) (  3,  2,  9) (  3,  3,  6)
    -0.4132E-01   -0.5076E-01   -0.3947E-01   -0.2454E-01   -0.1724E-01
  (  2,  6,  1) (  3,  3,  6) (  3,  3,  7) (  3,  3,  6) (  3,  3,  7)
    -0.9587E-02   -0.1141E-01   -0.9047E-02   -0.5718E-02   -0.4191E-02
  (  3,  3,  6) (  3,  3,  7) (  3,  3,  6) (  3,  3,  6) (  3,  3,  6)
    -0.2365E-02   -0.2724E-02   -0.2127E-02   -0.1430E-02   -0.1011E-02
  (  3,  3,  6) (  3,  3,  6) (  3,  3,  6) (  3,  3,  6) (  3,  3,  6)
    -0.6285E-03   -0.6610E-03   -0.5369E-03   -0.3504E-03   -0.2651E-03
  (  3,  3,  6) (  3,  3,  6) (  3,  3,  6) (  3,  3,  6) (  3,  3,  6)
    -0.1635E-03   -0.1698E-03   -0.1368E-03   -0.9622E-04   -0.6605E-04
  (  3,  3,  6) (  3,  3,  6) (  3,  3,  6) (  3,  3,  6) (  3,  3,  6)
    -0.4569E-04   -0.4466E-04   -0.3862E-04   -0.2556E-04   -0.1944E-04
  (  3,  3,  6) (  3,  3,  6) (  3,  3,  6) (  3,  3,  6) (  3,  3,  6)
    -0.1162E-04   -0.1008E-04   -0.6228E-05
  (  3,  3,  6) (  3,  3,  6) (  3,  3,  6)


 OUTPUT CONTROL FOR STRESS PERIOD    3   TIME STEP    5
    SAVE HEAD FOR ALL LAYERS

 HEAD WILL BE SAVED ON UNIT   21 AT END OF TIME STEP    5, STRESS PERIOD    3
 
 SOLVING FOR HEAD 
    36 ITERATIONS FOR TIME STEP   6 IN STRESS PERIOD    3

 MAXIMUM HEAD CHANGE FOR EACH ITERATION:

    HEAD CHANGE   HEAD CHANGE   HEAD CHANGE   HEAD CHANGE   HEAD CHANGE
  LAYER,ROW,COL LAYER,ROW,COL LAYER,ROW,COL LAYER,ROW,COL LAYER,ROW,COL
 ----------------------------------------------------------------------
    -0.2315       -0.2105       -0.1408       -0.8965E-01   -0.6016E-01
  (  3,  1, 10) (  3,  3,  6) (  3, 10, 10) (  3,  3,  7) (  3,  3,  6)
    -0.4959E-01   -0.3982E-01   -0.3349E-01   -0.1933E-01   -0.1330E-01
  (  2,  6,  1) (  3,  3,  7) (  3,  3,  7) (  3,  3,  6) (  3,  3,  7)
    -0.6734E-02   -0.8641E-02   -0.7154E-02   -0.4389E-02   -0.3087E-02
  (  3,  3,  6) (  3,  3,  7) (  3,  3,  6) (  3,  3,  6) (  3,  3,  6)
    -0.1654E-02   -0.1994E-02   -0.1656E-02   -0.1064E-02   -0.7469E-03
  (  3,  3,  6) (  3,  3,  6) (  3,  3,  6) (  3,  3,  6) (  3,  3,  6)
    -0.4395E-03   -0.4759E-03   -0.4080E-03   -0.2668E-03   -0.1920E-03
  (  3,  3,  6) (  3,  3,  6) (  3,  3,  6) (  3,  3,  6) (  3,  3,  6)
    -0.1139E-03   -0.1209E-03   -0.1070E-03   -0.7286E-04   -0.4877E-04
  (  3,  3,  6) (  3,  3,  6) (  3,  3,  6) (  3,  3,  6) (  3,  3,  6)
    -0.3204E-04   -0.3408E-04   -0.3096E-04   -0.2048E-04   -0.1480E-04
  (  3,  3,  6) (  3,  3,  6) (  3,  3,  6) (  3,  3,  6) (  3,  3,  6)
    -0.8103E-05
  (  3,  3,  6)


 OUTPUT CONTROL FOR STRESS PERIOD    3   TIME STEP    6
    PRINT BUDGET
    PRINT HEAD FOR ALL LAYERS
    SAVE HEAD FOR ALL LAYERS
    SAVE DRAWDOWN FOR ALL LAYERS
1
              HEAD IN LAYER   1 AT END OF TIME STEP   6 IN STRESS PERIOD    3
  ---------------------------------------------------------------------------

           1       2       3       4       5       6       7       8       9      10
 ...................................................................................
   1    22.46   22.12   21.46   21.05   20.85   20.84   21.04   21.46   22.12   22.46
   2    21.43   20.93   20.51   20.22   20.07   20.07   20.21   20.51   20.93   21.42
   3    19.92   19.43   19.07   18.82   18.70   18.70   18.82   19.06   19.42   19.91
   4    17.86   17.43   17.13   16.94   16.85   16.85   16.94   17.13   17.42   17.85
   5    14.93   14.84   14.74   14.66   14.62   14.62   14.66   14.74   14.84   14.93
   6    12.29   12.27   12.23   12.19   12.17   12.17   12.19   12.22   12.26   12.29
   7     9.71    9.68    9.64    9.60    9.58    9.58    9.60    9.64    9.68    9.70
   8     7.15    7.09    6.99    6.89    6.83    6.83    6.89    6.99    7.09    7.15
   9     4.76    4.59    4.27    3.92    3.77    3.77    3.92    4.27    4.59    4.76
  10     3.03    2.59    1.64    0.00    0.00    0.00    0.00    1.64    2.59    3.03
1
              HEAD IN LAYER   2 AT END OF TIME STEP   6 IN STRESS PERIOD    3
  ---------------------------------------------------------------------------

           1       2       3       4       5       6       7       8       9      10
 ...................................................................................
   1     3.92    3.97    3.99    4.00    4.00    3.99    3.97    3.94    3.90    3.84
   2     3.68    5.60    5.50    5.09    4.67    4.35    4.43    4.77    4.95    3.55
   3     3.36    4.84    4.55    3.82    2.75    1.26    1.69    3.01    3.79    3.20
   4     2.98    4.09    3.85    3.33    2.65    1.87    2.06    2.77    3.26    2.82
   5     2.56    3.24    3.17    2.95    2.72    2.54    2.55    2.70    2.80    2.41
   6     2.12    2.35    2.31    2.23    2.15    2.09    2.09    2.12    2.14    1.99
   7     1.67    1.34    1.26    1.21    1.18    1.16    1.16    1.18    1.25    1.56
   8     1.22    0.26    0.07   -0.00   -0.04   -0.05   -0.03    0.03    0.21    1.15
   9     0.81   -0.76   -1.12   -1.30   -1.38   -1.39   -1.32   -1.14   -0.79    0.76
  10     0.44    0.37    0.30    0.26    0.23    0.23    0.25    0.29    0.35    0.42
1
              HEAD IN LAYER   3 AT END OF TIME STEP   6 IN STRESS PERIOD    3
  ---------------------------------------------------------------------------

           1       2       3       4       5       6       7       8       9      10
 ...................................................................................
   1    -8.61   -8.73   -8.96   -9.27   -9.59   -9.83   -9.91   -9.85   -9.74   -9.67
   2    -8.85   -9.05   -9.46  -10.07  -10.80  -11.45  -11.45  -11.00  -10.58  -10.34
   3    -9.05   -9.37  -10.09  -11.33  -13.39  -16.85  -15.92  -13.21  -11.75  -11.11
   4    -8.74   -8.99   -9.54  -10.43  -11.71  -13.45  -13.11  -11.74  -10.87  -10.44
   5    -8.11   -8.25   -8.51   -8.88   -9.31   -9.68   -9.70   -9.48   -9.25   -9.11
   6    -7.54   -7.59   -7.70   -7.84   -7.98   -8.09   -8.13   -8.10   -8.06   -8.02
   7    -7.15   -7.17   -7.21   -7.26   -7.31   -7.35   -7.37   -7.37   -7.37   -7.36
   8    -6.94   -6.95   -6.97   -6.99   -7.01   -7.03   -7.03   -7.04   -7.04   -7.04
   9    -6.79   -6.80   -6.81   -6.82   -6.83   -6.84   -6.84   -6.85   -6.85   -6.85
  10    -6.71   -6.71   -6.72   -6.72   -6.73   -6.74   -6.74   -6.75   -6.75   -6.75

 HEAD WILL BE SAVED ON UNIT   21 AT END OF TIME STEP    6, STRESS PERIOD    3

 DRAWDOWN WILL BE SAVED ON UNIT   22 AT END OF TIME STEP    6, STRESS PERIOD    3
1
  VOLUMETRIC BUDGET FOR ENTIRE MODEL AT END OF TIME STEP    6, STRESS PERIOD   3
  ------------------------------------------------------------------------------

     CUMULATIVE VOLUMES      L**3       RATES FOR THIS TIME STEP      L**3/T
     ------------------                 ------------------------

           IN:                                      IN:
           ---                                      ---
             STORAGE =     4553606.5000               STORAGE =        5469.9258
       CONSTANT HEAD =           0.0000         CONSTANT HEAD =           0.0000
               WELLS =    21948000.0000                 WELLS =       30000.0000
    INST. IB STORAGE =     8599993.0000      INST. IB STORAGE =        9674.9082
    DELAY IB STORAGE =     8300539.0000      DELAY IB STORAGE =       13731.9941

            TOTAL IN =    43402140.0000              TOTAL IN =       58876.8281

          OUT:                                     OUT:
          ----                                     ----
             STORAGE =           0.0000               STORAGE =           0.0000
       CONSTANT HEAD =    21484138.0000         CONSTANT HEAD =       28876.9180
               WELLS =    21918000.0000                 WELLS =       30000.0000
    INST. IB STORAGE =           0.0000      INST. IB STORAGE =           0.0000
    DELAY IB STORAGE =           0.0000      DELAY IB STORAGE =           0.0000

           TOTAL OUT =    43402136.0000             TOTAL OUT =       58876.9180

            IN - OUT =           4.0000              IN - OUT =      -8.9844E-02

 PERCENT DISCREPANCY =           0.00     PERCENT DISCREPANCY =          -0.00






         TIME SUMMARY AT END OF TIME STEP    6 IN STRESS PERIOD    3
                    SECONDS     MINUTES      HOURS       DAYS        YEARS
                    -----------------------------------------------------------
   TIME STEP LENGTH 9.18681E+06 1.53113E+05  2551.9      106.33     0.29111    
 STRESS PERIOD TIME 3.15619E+07 5.26032E+05  8767.2      365.30      1.0001    
         TOTAL TIME 6.32102E+07 1.05350E+06  17558.      731.60      2.0030    
1

                               VOLUMETRIC BUDGET FOR SYSTEMS OF DELAY INTERBEDS
                                          AT END OF TIME STEP  6 IN STRESS PERIOD  3

          |   C U M U L A T I V E   V O L U M E S   L**3           | R A T E S   F O R  T H I S  T I M E  S T E P   L**3/T  |
   SYSTEM |    CHANGE IN     BOUNDARY                    PERCENT   |    CHANGE IN     BOUNDARY                    PERCENT   |
   NUMBER |     STORAGE        FLOW           SUM      DISCREPANCY |     STORAGE        FLOW           SUM      DISCREPANCY |
  --------|--------------------------------------------------------|--------------------------------------------------------|
      1     8101.0        -8101.0         0.0000         0.0000         13.597        -13.597        0.28610E-05    0.21042E-04
      2    0.82924E+07   -0.82924E+07     0.0000         0.0000         13718.        -13718.        0.39062E-02    0.28475E-04
  --------|--------------------------------------------------------|--------------------------------------------------------|
 TOTALS:    0.83005E+07   -0.83005E+07     0.0000         0.0000         13732.        -13732.        0.39062E-02    0.28446E-04
1
                            STRESS PERIOD NO.    4, LENGTH =   365.3000    
                            -----------------------------------------------

                              NUMBER OF TIME STEPS =     6

                               MULTIPLIER FOR DELT =     1.300

                            INITIAL TIME STEP SIZE =   28.63744    

 REUSING NON-PARAMETER WELLS FROM LAST STRESS PERIOD

     14 WELLS
 
 SOLVING FOR HEAD 

    37 ITERATIONS FOR TIME STEP   1 IN STRESS PERIOD    4

 MAXIMUM HEAD CHANGE FOR EACH ITERATION:

    HEAD CHANGE   HEAD CHANGE   HEAD CHANGE   HEAD CHANGE   HEAD CHANGE
  LAYER,ROW,COL LAYER,ROW,COL LAYER,ROW,COL LAYER,ROW,COL LAYER,ROW,COL
 ----------------------------------------------------------------------
      1.633         3.097         1.305        -2.233        -1.997    
  (  3,  3,  7) (  3,  1, 10) (  3,  1,  1) (  3,  2, 10) (  3,  1,  5)
    -0.1628       -0.3728        0.1832       -0.2723E-01   -0.3001E-01
  (  3,  1, 10) (  3,  3, 10) (  3,  1, 10) (  3,  2,  5) (  3,  3,  6)
    -0.2018E-01   -0.1762E-01   -0.1419E-01   -0.8197E-02   -0.6475E-02
  (  3,  3,  6) (  3,  3,  6) (  3,  3,  6) (  3,  3,  6) (  3,  3,  6)
    -0.4304E-02    0.2204E-02    0.1641E-02    0.1232E-02    0.9013E-03
  (  3,  3,  6) (  3,  1,  1) (  3,  1,  3) (  3,  1, 10) (  3,  1,  3)
     0.6210E-03    0.5667E-03    0.4076E-03    0.2955E-03    0.2303E-03
  (  3,  1, 10) (  3,  1, 10) (  3,  1, 10) (  3,  1,  3) (  3,  1, 10)
     0.1510E-03    0.1365E-03    0.1000E-03    0.7570E-04    0.5487E-04
  (  3,  1, 10) (  3,  1,  9) (  3,  1,  3) (  3,  1, 10) (  3,  1,  3)
     0.3852E-04    0.3430E-04    0.2480E-04    0.1822E-04   -0.1430E-04
  (  3,  1,  9) (  3,  1, 10) (  3,  1,  9) (  3,  1,  3) (  3,  3,  6)
    -0.1219E-04   -0.8183E-05
  (  3,  3,  6) (  3,  3,  6)


 OUTPUT CONTROL FOR STRESS PERIOD    4   TIME STEP    1
    SAVE HEAD FOR ALL LAYERS

 HEAD WILL BE SAVED ON UNIT   21 AT END OF TIME STEP    1, STRESS PERIOD    4
 
 SOLVING FOR HEAD 
    38 ITERATIONS FOR TIME STEP   2 IN STRESS PERIOD    4

 MAXIMUM HEAD CHANGE FOR EACH ITERATION:

    HEAD CHANGE   HEAD CHANGE   HEAD CHANGE   HEAD CHANGE   HEAD CHANGE
  LAYER,ROW,COL LAYER,ROW,COL LAYER,ROW,COL LAYER,ROW,COL LAYER,ROW,COL
 ----------------------------------------------------------------------
      1.445         2.132        0.8558        -2.042        -1.937    
  (  3,  3,  7) (  3,  3, 10) (  3,  2,  1) (  3,  1, 10) (  3,  1,  6)
     0.5594        0.1175        0.1482        0.4616E-01   -0.2857E-01
  (  3,  1,  1) (  3,  6,  2) (  3, 10,  2) (  3, 10,  7) (  3,  3,  6)
    -0.2001E-01   -0.1808E-01   -0.1306E-01   -0.8458E-02   -0.4511E-02
  (  3,  3,  6) (  3,  3,  6) (  3,  3,  6) (  3,  3,  6) (  3,  3,  6)
    -0.2595E-02   -0.2239E-02   -0.1696E-02   -0.1296E-02   -0.9774E-03
  (  3,  3,  6) (  3,  3,  6) (  3,  3,  6) (  3,  3,  6) (  3,  3,  6)
    -0.7276E-03   -0.6097E-03   -0.4756E-03   -0.3519E-03   -0.2750E-03
  (  3,  3,  6) (  3,  3,  6) (  3,  3,  6) (  3,  3,  6) (  3,  3,  6)
    -0.2014E-03   -0.1717E-03   -0.1307E-03   -0.1001E-03   -0.7602E-04
  (  3,  3,  6) (  3,  3,  6) (  3,  3,  6) (  3,  3,  6) (  3,  3,  6)
    -0.5810E-04   -0.4743E-04   -0.3795E-04   -0.2850E-04   -0.2189E-04
  (  3,  3,  6) (  3,  3,  6) (  3,  3,  6) (  3,  3,  6) (  3,  3,  6)
    -0.1640E-04   -0.1192E-04   -0.9110E-05
  (  3,  3,  6) (  3,  3,  6) (  3,  3,  6)


 OUTPUT CONTROL FOR STRESS PERIOD    4   TIME STEP    2
    SAVE HEAD FOR ALL LAYERS

 HEAD WILL BE SAVED ON UNIT   21 AT END OF TIME STEP    2, STRESS PERIOD    4
 
 SOLVING FOR HEAD 
    38 ITERATIONS FOR TIME STEP   3 IN STRESS PERIOD    4

 MAXIMUM HEAD CHANGE FOR EACH ITERATION:

    HEAD CHANGE   HEAD CHANGE   HEAD CHANGE   HEAD CHANGE   HEAD CHANGE
  LAYER,ROW,COL LAYER,ROW,COL LAYER,ROW,COL LAYER,ROW,COL LAYER,ROW,COL
 ----------------------------------------------------------------------
      1.124         1.885        0.7945        -2.084        -1.547    
  (  3,  3,  7) (  3,  1, 10) (  3,  2,  1) (  3,  1, 10) (  3,  1,  1)
     0.7961        0.2370        0.4658E-01   -0.4084E-01   -0.2827E-01
  (  3,  1,  1) (  3,  2,  2) (  2,  1,  8) (  3,  3,  6) (  3,  3,  6)
     0.2019E-01   -0.1812E-01   -0.1140E-01   -0.7197E-02   -0.5490E-02
  (  2,  6,  1) (  3,  3,  6) (  3,  3,  6) (  3,  3,  6) (  3,  3,  6)
    -0.3346E-02   -0.3585E-02   -0.2600E-02   -0.1857E-02   -0.1344E-02
  (  3,  3,  6) (  3,  3,  6) (  3,  3,  6) (  3,  3,  6) (  3,  3,  6)
    -0.8870E-03   -0.8837E-03   -0.6718E-03   -0.4594E-03   -0.3554E-03
  (  3,  3,  6) (  3,  3,  6) (  3,  3,  6) (  3,  3,  6) (  3,  3,  6)
    -0.2266E-03   -0.2274E-03   -0.1674E-03   -0.1230E-03   -0.9011E-04
  (  3,  3,  6) (  3,  3,  6) (  3,  3,  6) (  3,  3,  6) (  3,  3,  6)
    -0.6169E-04   -0.5772E-04   -0.4462E-04   -0.3113E-04   -0.2387E-04
  (  3,  3,  6) (  3,  3,  6) (  3,  3,  6) (  3,  3,  6) (  3,  3,  6)
    -0.1582E-04   -0.1180E-04   -0.9047E-05
  (  3,  3,  6) (  3,  3,  6) (  3,  3,  6)


 OUTPUT CONTROL FOR STRESS PERIOD    4   TIME STEP    3
    SAVE HEAD FOR ALL LAYERS

 HEAD WILL BE SAVED ON UNIT   21 AT END OF TIME STEP    3, STRESS PERIOD    4
 
 SOLVING FOR HEAD 
    38 ITERATIONS FOR TIME STEP   4 IN STRESS PERIOD    4

 MAXIMUM HEAD CHANGE FOR EACH ITERATION:

    HEAD CHANGE   HEAD CHANGE   HEAD CHANGE   HEAD CHANGE   HEAD CHANGE
  LAYER,ROW,COL LAYER,ROW,COL LAYER,ROW,COL LAYER,ROW,COL LAYER,ROW,COL
 ----------------------------------------------------------------------
     0.7090         1.099        0.3387        -1.966        0.5571    
  (  3,  3,  7) (  3,  2, 10) (  3,  1,  1) (  3,  1, 10) (  3,  7,  1)
    -0.5742E-01   -0.6697E-01   -0.5378E-01   -0.3447E-01   -0.2366E-01
  (  3,  3,  7) (  3,  3,  6) (  3,  3,  6) (  3,  3,  6) (  3,  3,  7)
    -0.1172E-01   -0.1304E-01   -0.9878E-02   -0.6420E-02   -0.4731E-02
  (  3,  3,  6) (  3,  3,  6) (  3,  3,  6) (  3,  3,  6) (  3,  3,  6)
    -0.2754E-02   -0.3107E-02   -0.2340E-02   -0.1585E-02   -0.1144E-02
  (  3,  3,  6) (  3,  3,  6) (  3,  3,  6) (  3,  3,  6) (  3,  3,  6)
    -0.7141E-03   -0.7515E-03   -0.5804E-03   -0.3897E-03   -0.2952E-03
  (  3,  3,  6) (  3,  3,  6) (  3,  3,  6) (  3,  3,  6) (  3,  3,  6)
    -0.1834E-03   -0.1881E-03   -0.1445E-03   -0.1024E-03   -0.7394E-04
  (  3,  3,  6) (  3,  3,  6) (  3,  3,  6) (  3,  3,  6) (  3,  3,  6)
    -0.4971E-04   -0.4832E-04   -0.3849E-04   -0.2627E-04   -0.1998E-04
  (  3,  3,  6) (  3,  3,  6) (  3,  3,  6) (  3,  3,  6) (  3,  3,  6)
    -0.1283E-04   -0.1048E-04   -0.6102E-05
  (  3,  3,  6) (  3,  3,  6) (  3,  3,  6)


 OUTPUT CONTROL FOR STRESS PERIOD    4   TIME STEP    4
    SAVE HEAD FOR ALL LAYERS

 HEAD WILL BE SAVED ON UNIT   21 AT END OF TIME STEP    4, STRESS PERIOD    4
 
 SOLVING FOR HEAD 
    37 ITERATIONS FOR TIME STEP   5 IN STRESS PERIOD    4

 MAXIMUM HEAD CHANGE FOR EACH ITERATION:

    HEAD CHANGE   HEAD CHANGE   HEAD CHANGE   HEAD CHANGE   HEAD CHANGE
  LAYER,ROW,COL LAYER,ROW,COL LAYER,ROW,COL LAYER,ROW,COL LAYER,ROW,COL
 ----------------------------------------------------------------------
     0.6064        0.6455       -0.2465        -1.706        0.9644    
  (  3,  3,  6) (  3,  1, 10) (  3,  1, 10) (  3,  1, 10) (  3,  1,  1)
     0.1160       -0.7293E-01   -0.5786E-01   -0.3446E-01   -0.2322E-01
  (  2,  7, 10) (  3,  3,  6) (  3,  3,  7) (  3,  3,  6) (  3,  3,  6)
    -0.1137E-01   -0.1574E-01   -0.1242E-01   -0.7285E-02   -0.5185E-02
  (  3,  3,  6) (  3,  3,  6) (  3,  3,  6) (  3,  3,  6) (  3,  3,  6)
    -0.2576E-02   -0.3417E-02   -0.2653E-02   -0.1669E-02   -0.1140E-02
  (  3,  3,  6) (  3,  3,  6) (  3,  3,  6) (  3,  3,  6) (  3,  3,  6)
    -0.6370E-03   -0.7616E-03   -0.6126E-03   -0.3768E-03   -0.2792E-03
  (  3,  3,  6) (  3,  3,  6) (  3,  3,  6) (  3,  3,  6) (  3,  3,  6)
    -0.1542E-03   -0.1786E-03   -0.1394E-03   -0.9536E-04   -0.6546E-04
  (  3,  3,  6) (  3,  3,  6) (  3,  3,  6) (  3,  3,  6) (  3,  3,  6)
    -0.4146E-04   -0.4316E-04   -0.3570E-04   -0.2317E-04   -0.1723E-04
  (  3,  3,  6) (  3,  3,  6) (  3,  3,  6) (  3,  3,  6) (  3,  3,  6)
    -0.1031E-04   -0.6417E-05
  (  3,  3,  6) (  3,  3,  6)


 OUTPUT CONTROL FOR STRESS PERIOD    4   TIME STEP    5
    SAVE HEAD FOR ALL LAYERS

 HEAD WILL BE SAVED ON UNIT   21 AT END OF TIME STEP    5, STRESS PERIOD    4
 
 SOLVING FOR HEAD 
    36 ITERATIONS FOR TIME STEP   6 IN STRESS PERIOD    4

 MAXIMUM HEAD CHANGE FOR EACH ITERATION:

    HEAD CHANGE   HEAD CHANGE   HEAD CHANGE   HEAD CHANGE   HEAD CHANGE
  LAYER,ROW,COL LAYER,ROW,COL LAYER,ROW,COL LAYER,ROW,COL LAYER,ROW,COL
 ----------------------------------------------------------------------
     0.3394        0.1958       -0.5066        0.2176       -0.7028E-01
  (  3,  3,  7) (  3,  1, 10) (  3,  2,  6) (  3,  1,  1) (  3,  3,  7)
    -0.3466E-01   -0.5750E-01   -0.4832E-01   -0.2646E-01   -0.1728E-01
  (  3,  3,  7) (  3,  3,  7) (  3,  3,  7) (  3,  3,  6) (  3,  3,  7)
    -0.9311E-02   -0.1144E-01   -0.9557E-02   -0.5376E-02   -0.3678E-02
  (  2,  8,  1) (  3,  3,  7) (  3,  3,  6) (  3,  3,  7) (  3,  3,  6)
    -0.1721E-02   -0.2373E-02   -0.1968E-02   -0.1198E-02   -0.7903E-03
  (  3,  3,  6) (  3,  3,  6) (  3,  3,  6) (  3,  3,  6) (  3,  3,  6)
    -0.4311E-03   -0.5219E-03   -0.4467E-03   -0.2679E-03   -0.1967E-03
  (  3,  3,  6) (  3,  3,  6) (  3,  3,  6) (  3,  3,  6) (  3,  3,  6)
    -0.1053E-03   -0.1230E-03   -0.1029E-03   -0.7002E-04   -0.4580E-04
  (  3,  3,  6) (  3,  3,  6) (  3,  3,  6) (  3,  3,  6) (  3,  3,  6)
    -0.2865E-04   -0.2946E-04   -0.2790E-04   -0.1851E-04   -0.1332E-04
  (  3,  3,  6) (  3,  3,  6) (  3,  3,  6) (  3,  3,  6) (  3,  3,  6)
    -0.6582E-05
  (  3,  3,  6)


 OUTPUT CONTROL FOR STRESS PERIOD    4   TIME STEP    6
    PRINT BUDGET
    PRINT HEAD FOR ALL LAYERS
    SAVE HEAD FOR ALL LAYERS
    SAVE DRAWDOWN FOR ALL LAYERS
1
              HEAD IN LAYER   1 AT END OF TIME STEP   6 IN STRESS PERIOD    4
  ---------------------------------------------------------------------------

           1       2       3       4       5       6       7       8       9      10
 ...................................................................................
   1    22.34   22.00   21.34   20.92   20.72   20.72   20.92   21.34   21.99   22.34
   2    21.31   20.81   20.39   20.10   19.94   19.94   20.09   20.38   20.80   21.30
   3    19.80   19.31   18.95   18.70   18.58   18.58   18.70   18.94   19.30   19.79
   4    17.74   17.31   17.01   16.83   16.73   16.73   16.82   17.01   17.30   17.73
   5    14.82   14.73   14.63   14.55   14.50   14.50   14.54   14.62   14.73   14.81
   6    12.19   12.16   12.12   12.08   12.06   12.06   12.08   12.12   12.16   12.18
   7     9.61    9.59    9.55    9.51    9.49    9.49    9.51    9.55    9.58    9.61
   8     7.07    7.01    6.91    6.81    6.75    6.75    6.81    6.91    7.01    7.07
   9     4.70    4.53    4.22    3.87    3.72    3.72    3.87    4.22    4.53    4.70
  10     2.99    2.55    1.62    0.00    0.00    0.00    0.00    1.62    2.55    2.99
1
              HEAD IN LAYER   2 AT END OF TIME STEP   6 IN STRESS PERIOD    4
  ---------------------------------------------------------------------------

           1       2       3       4       5       6       7       8       9      10
 ...................................................................................
   1     3.30    3.34    3.36    3.37    3.36    3.35    3.33    3.30    3.26    3.20
   2     3.08    4.89    4.76    4.33    3.88    3.55    3.60    3.94    4.15    2.93
   3     2.79    4.14    3.81    3.06    1.96    0.45    0.86    2.18    2.99    2.60
   4     2.44    3.44    3.18    2.63    1.93    1.13    1.29    2.01    2.52    2.25
   5     2.05    2.69    2.59    2.36    2.10    1.91    1.91    2.05    2.16    1.87
   6     1.64    1.90    1.86    1.76    1.67    1.60    1.58    1.61    1.63    1.49
   7     1.22    1.00    0.92    0.87    0.83    0.80    0.79    0.81    0.86    1.10
   8     0.81   -0.00   -0.18   -0.25   -0.29   -0.30   -0.28   -0.23   -0.07    0.72
   9     0.42   -0.99   -1.33   -1.51   -1.59   -1.60   -1.53   -1.36   -1.03    0.36
  10     0.08    0.00   -0.06   -0.10   -0.13   -0.13   -0.11   -0.08   -0.02    0.04
1
              HEAD IN LAYER   3 AT END OF TIME STEP   6 IN STRESS PERIOD    4
  ---------------------------------------------------------------------------

           1       2       3       4       5       6       7       8       9      10
 ...................................................................................
   1    -9.90  -10.04  -10.30  -10.64  -11.00  -11.27  -11.38  -11.34  -11.24  -11.17
   2   -10.14  -10.36  -10.80  -11.45  -12.22  -12.91  -12.94  -12.51  -12.09  -11.85
   3   -10.30  -10.64  -11.40  -12.69  -14.80  -18.31  -17.40  -14.70  -13.24  -12.59
   4    -9.88  -10.16  -10.74  -11.66  -12.99  -14.78  -14.46  -13.10  -12.23  -11.80
   5    -9.08   -9.22   -9.51   -9.92  -10.38  -10.78  -10.82  -10.62  -10.39  -10.25
   6    -8.28   -8.35   -8.47   -8.63   -8.80   -8.94   -8.99   -8.98   -8.94   -8.91
   7    -7.68   -7.71   -7.76   -7.82   -7.89   -7.94   -7.98   -7.99   -7.99   -7.99
   8    -7.29   -7.30   -7.32   -7.35   -7.38   -7.40   -7.42   -7.43   -7.44   -7.44
   9    -7.08   -7.09   -7.10   -7.11   -7.12   -7.13   -7.14   -7.15   -7.15   -7.15
  10    -7.00   -7.00   -7.01   -7.01   -7.02   -7.02   -7.03   -7.03   -7.03   -7.03

 HEAD WILL BE SAVED ON UNIT   21 AT END OF TIME STEP    6, STRESS PERIOD    4

 DRAWDOWN WILL BE SAVED ON UNIT   22 AT END OF TIME STEP    6, STRESS PERIOD    4
1
  VOLUMETRIC BUDGET FOR ENTIRE MODEL AT END OF TIME STEP    6, STRESS PERIOD   4
  ------------------------------------------------------------------------------

     CUMULATIVE VOLUMES      L**3       RATES FOR THIS TIME STEP      L**3/T
     ------------------                 ------------------------

           IN:                                      IN:
           ---                                      ---
             STORAGE =     6506260.5000               STORAGE =        5275.0615
       CONSTANT HEAD =         365.6720         CONSTANT HEAD =           2.8514
               WELLS =    32907002.0000                 WELLS =       30000.0000
    INST. IB STORAGE =    11716804.0000      INST. IB STORAGE =        7932.1978
    DELAY IB STORAGE =    13692345.0000      DELAY IB STORAGE =       15280.2393

            TOTAL IN =    64822776.0000              TOTAL IN =       58490.3516

          OUT:                                     OUT:
          ----                                     ----
             STORAGE =           0.0000               STORAGE =           0.0000
       CONSTANT HEAD =    31945780.0000         CONSTANT HEAD =       28490.4648
               WELLS =    32877002.0000                 WELLS =       30000.0000
    INST. IB STORAGE =           0.0000      INST. IB STORAGE =           0.0000
    DELAY IB STORAGE =           0.0000      DELAY IB STORAGE =           0.0000

           TOTAL OUT =    64822784.0000             TOTAL OUT =       58490.4648

            IN - OUT =          -8.0000              IN - OUT =          -0.1133

 PERCENT DISCREPANCY =          -0.00     PERCENT DISCREPANCY =          -0.00






         TIME SUMMARY AT END OF TIME STEP    6 IN STRESS PERIOD    4
                    SECONDS     MINUTES      HOURS       DAYS        YEARS
                    -----------------------------------------------------------
   TIME STEP LENGTH 9.18681E+06 1.53113E+05  2551.9      106.33     0.29111    
 STRESS PERIOD TIME 3.15619E+07 5.26032E+05  8767.2      365.30      1.0001    
         TOTAL TIME 9.47722E+07 1.57954E+06  26326.      1096.9      3.0031    
1

                               VOLUMETRIC BUDGET FOR SYSTEMS OF DELAY INTERBEDS
                                          AT END OF TIME STEP  6 IN STRESS PERIOD  4

          |   C U M U L A T I V E   V O L U M E S   L**3           | R A T E S   F O R  T H I S  T I M E  S T E P   L**3/T  |
   SYSTEM |    CHANGE IN     BOUNDARY                    PERCENT   |    CHANGE IN     BOUNDARY                    PERCENT   |
   NUMBER |     STORAGE        FLOW           SUM      DISCREPANCY |     STORAGE        FLOW           SUM      DISCREPANCY |
  --------|--------------------------------------------------------|--------------------------------------------------------|
      1     13400.        -13400.         0.0000         0.0000         13.227        -13.227        0.19073E-05    0.14420E-04
      2    0.13679E+08   -0.13679E+08    -2.0000       -0.14621E-04     15267.        -15267.        0.29297E-02    0.19190E-04
  --------|--------------------------------------------------------|--------------------------------------------------------|
 TOTALS:    0.13692E+08   -0.13692E+08    -2.0000       -0.14607E-04     15280.        -15280.        0.29297E-02    0.19173E-04
1
                            STRESS PERIOD NO.    5, LENGTH =   365.3000    
                            -----------------------------------------------

                              NUMBER OF TIME STEPS =     6

                               MULTIPLIER FOR DELT =     1.300

                            INITIAL TIME STEP SIZE =   28.63744    

 REUSING NON-PARAMETER WELLS FROM LAST STRESS PERIOD

     14 WELLS
 
 SOLVING FOR HEAD 

    41 ITERATIONS FOR TIME STEP   1 IN STRESS PERIOD    5

 MAXIMUM HEAD CHANGE FOR EACH ITERATION:

    HEAD CHANGE   HEAD CHANGE   HEAD CHANGE   HEAD CHANGE   HEAD CHANGE
  LAYER,ROW,COL LAYER,ROW,COL LAYER,ROW,COL LAYER,ROW,COL LAYER,ROW,COL
 ----------------------------------------------------------------------
      1.671         4.484         2.750        -2.343        -2.808    
  (  3,  4, 10) (  3,  1, 10) (  3,  1,  1) (  3,  2, 10) (  3,  1,  1)
    -0.2772       -0.6630        -1.508        0.6292        0.4281E-01
  (  3,  1, 10) (  3,  3, 10) (  3,  1, 10) (  3,  1, 10) (  2, 10, 10)
    -0.4440E-01   -0.1813E-01   -0.1879E-01   -0.8955E-02   -0.5942E-02
  (  2,  7,  1) (  3, 10, 10) (  3, 10, 10) (  3,  3,  6) (  3,  3,  6)
    -0.3497E-02   -0.3221E-02    0.2503E-02    0.1978E-02    0.4178E-02
  (  3,  3,  6) (  3,  3,  6) (  3,  2, 10) (  3,  6,  1) (  3,  1, 10)
     0.2637E-02    0.2375E-02    0.1680E-02    0.1220E-02    0.9123E-03
  (  3,  1,  6) (  3,  1,  6) (  3,  1,  6) (  3,  1,  6) (  3,  1,  6)
     0.6169E-03    0.5739E-03    0.4175E-03    0.2999E-03    0.2262E-03
  (  3,  1,  6) (  3,  1,  6) (  3,  1,  6) (  3,  1,  6) (  3,  1,  6)
     0.1515E-03    0.1438E-03    0.1020E-03    0.7473E-04    0.5567E-04
  (  3,  1,  6) (  3,  1,  6) (  3,  1,  6) (  3,  1,  6) (  3,  1,  6)
     0.3831E-04    0.3478E-04    0.2594E-04    0.1861E-04    0.1377E-04
  (  3,  1,  6) (  3,  1,  6) (  3,  1,  6) (  3,  1,  6) (  3,  1,  6)
     0.9633E-05
  (  3,  1,  6)


 OUTPUT CONTROL FOR STRESS PERIOD    5   TIME STEP    1
    SAVE HEAD FOR ALL LAYERS

 HEAD WILL BE SAVED ON UNIT   21 AT END OF TIME STEP    1, STRESS PERIOD    5
 
 SOLVING FOR HEAD 
    39 ITERATIONS FOR TIME STEP   2 IN STRESS PERIOD    5

 MAXIMUM HEAD CHANGE FOR EACH ITERATION:

    HEAD CHANGE   HEAD CHANGE   HEAD CHANGE   HEAD CHANGE   HEAD CHANGE
  LAYER,ROW,COL LAYER,ROW,COL LAYER,ROW,COL LAYER,ROW,COL LAYER,ROW,COL
 ----------------------------------------------------------------------
      1.472         3.175         1.996        -1.982        -2.748    
  (  3,  3,  6) (  3,  1,  9) (  3,  2,  1) (  3,  2, 10) (  3,  1,  1)
    -0.2101       -0.5205        -1.239        0.8829        0.8819E-01
  (  3,  1, 10) (  3,  3, 10) (  3,  1, 10) (  3,  1, 10) (  2,  7, 10)
    -0.3767E-01   -0.1882E-01   -0.1291E-01   -0.8236E-02   -0.6089E-02
  (  2, 10, 10) (  3,  3,  6) (  3,  3,  6) (  3,  3,  6) (  3,  3,  6)
    -0.1707E-02    0.3112E-02    0.3196E-02    0.2510E-02    0.1830E-02
  (  3,  3,  6) (  3,  1,  1) (  3,  1, 10) (  3,  2, 10) (  3,  1, 10)
     0.1134E-02    0.1223E-02    0.8362E-03    0.5780E-03    0.4284E-03
  (  3,  1, 10) (  3,  1, 10) (  3,  2,  8) (  3,  1, 10) (  3,  2, 10)
     0.2837E-03    0.2818E-03    0.1939E-03    0.1374E-03    0.9856E-04
  (  3,  1, 10) (  3,  2,  8) (  3,  1, 10) (  3,  2,  8) (  3,  1, 10)
     0.6202E-04    0.6604E-04    0.4666E-04    0.3160E-04    0.2422E-04
  (  3,  2, 10) (  3,  1, 10) (  3,  2,  8) (  3,  1, 10) (  3,  2,  8)
     0.1517E-04    0.1535E-04    0.1054E-04    0.4288E-05
  (  3,  1, 10) (  3,  2,  8) (  3,  1, 10) (  3,  1, 10)


 OUTPUT CONTROL FOR STRESS PERIOD    5   TIME STEP    2
    SAVE HEAD FOR ALL LAYERS

 HEAD WILL BE SAVED ON UNIT   21 AT END OF TIME STEP    2, STRESS PERIOD    5
 
 SOLVING FOR HEAD 
    36 ITERATIONS FOR TIME STEP   3 IN STRESS PERIOD    5

 MAXIMUM HEAD CHANGE FOR EACH ITERATION:

    HEAD CHANGE   HEAD CHANGE   HEAD CHANGE   HEAD CHANGE   HEAD CHANGE
  LAYER,ROW,COL LAYER,ROW,COL LAYER,ROW,COL LAYER,ROW,COL LAYER,ROW,COL
 ----------------------------------------------------------------------
      1.217         2.616         1.623        -1.974        -2.767    
  (  3,  3,  7) (  3,  1, 10) (  3,  1,  1) (  3,  2, 10) (  3,  1,  1)
     0.4014        0.1438       -0.5338E-01   -0.3004E-01   -0.2712E-01
  (  3, 10, 10) (  3,  9,  7) (  3,  3,  6) (  3,  3,  7) (  3,  3,  7)
    -0.1561E-01   -0.1687E-01   -0.1196E-01   -0.4717E-02   -0.4008E-02
  (  3,  3,  6) (  3,  3,  6) (  3,  3,  6) (  3,  3,  6) (  3,  3,  6)
     0.3491E-02    0.3198E-02    0.2280E-02    0.1599E-02    0.1135E-02
  (  3,  1, 10) (  3,  1,  9) (  3,  1, 10) (  3,  1, 10) (  3,  1, 10)
     0.7376E-03    0.7539E-03    0.5162E-03    0.3535E-03    0.2739E-03
  (  3,  1, 10) (  3,  1, 10) (  3,  1, 10) (  3,  1, 10) (  3,  1, 10)
     0.1747E-03    0.1636E-03    0.1193E-03    0.8564E-04    0.5989E-04
  (  3,  1, 10) (  3,  1,  9) (  3,  1, 10) (  3,  1, 10) (  3,  1, 10)
     0.4005E-04    0.3929E-04    0.2868E-04    0.1935E-04    0.1460E-04
  (  3,  1, 10) (  3,  1, 10) (  3,  1, 10) (  3,  1, 10) (  3,  1, 10)
     0.8771E-05
  (  3,  1, 10)


 OUTPUT CONTROL FOR STRESS PERIOD    5   TIME STEP    3
    SAVE HEAD FOR ALL LAYERS

 HEAD WILL BE SAVED ON UNIT   21 AT END OF TIME STEP    3, STRESS PERIOD    5
 
 SOLVING FOR HEAD 
    36 ITERATIONS FOR TIME STEP   4 IN STRESS PERIOD    5

 MAXIMUM HEAD CHANGE FOR EACH ITERATION:

    HEAD CHANGE   HEAD CHANGE   HEAD CHANGE   HEAD CHANGE   HEAD CHANGE
  LAYER,ROW,COL LAYER,ROW,COL LAYER,ROW,COL LAYER,ROW,COL LAYER,ROW,COL
 ----------------------------------------------------------------------
     0.9290         1.944         1.135        -1.870        -2.514    
  (  3,  3,  6) (  3,  1, 10) (  3,  1,  1) (  3,  1, 10) (  3,  1,  1)
     0.8380        0.3773        0.1172       -0.4441E-01   -0.1313    
  (  3,  1,  2) (  3,  9,  6) (  3, 10,  1) (  3, 10, 10) (  3, 10,  1)
     0.7878E-01   -0.1792E-01   -0.1041E-01   -0.5856E-02   -0.4260E-02
  (  2,  9,  1) (  3,  3,  6) (  3,  3,  6) (  3,  3,  6) (  3,  3,  6)
    -0.2381E-02   -0.2814E-02   -0.2127E-02   -0.1399E-02   -0.1004E-02
  (  3,  3,  6) (  3,  3,  6) (  3,  3,  6) (  3,  3,  6) (  3,  3,  6)
    -0.6022E-03   -0.6609E-03   -0.5093E-03   -0.3374E-03   -0.2505E-03
  (  3,  3,  6) (  3,  3,  6) (  3,  3,  6) (  3,  3,  6) (  3,  3,  6)
    -0.1522E-03   -0.1613E-03   -0.1246E-03   -0.8616E-04   -0.6119E-04
  (  3,  3,  6) (  3,  3,  6) (  3,  3,  6) (  3,  3,  6) (  3,  3,  6)
    -0.4060E-04   -0.4015E-04   -0.3182E-04   -0.2162E-04   -0.1595E-04
  (  3,  3,  6) (  3,  3,  6) (  3,  3,  6) (  3,  3,  6) (  3,  3,  6)
    -0.9811E-05
  (  3,  3,  6)


 OUTPUT CONTROL FOR STRESS PERIOD    5   TIME STEP    4
    SAVE HEAD FOR ALL LAYERS

 HEAD WILL BE SAVED ON UNIT   21 AT END OF TIME STEP    4, STRESS PERIOD    5
 
 SOLVING FOR HEAD 
    36 ITERATIONS FOR TIME STEP   5 IN STRESS PERIOD    5

 MAXIMUM HEAD CHANGE FOR EACH ITERATION:

    HEAD CHANGE   HEAD CHANGE   HEAD CHANGE   HEAD CHANGE   HEAD CHANGE
  LAYER,ROW,COL LAYER,ROW,COL LAYER,ROW,COL LAYER,ROW,COL LAYER,ROW,COL
 ----------------------------------------------------------------------
     0.6817         1.017        0.4639        -1.715       -0.9150    
  (  3,  3,  7) (  3,  2, 10) (  3,  2,  1) (  3,  1, 10) (  3,  1,  1)
     0.4924        0.2051        0.4179E-01   -0.3359E-01   -0.2276E-01
  (  3,  1,  2) (  3,  2,  2) (  2,  1,  9) (  3,  3,  6) (  3,  3,  7)
     0.1446E-01   -0.1384E-01   -0.1089E-01   -0.6364E-02   -0.4513E-02
  (  2,  6,  1) (  3,  3,  6) (  3,  3,  6) (  3,  3,  6) (  3,  3,  6)
    -0.2220E-02   -0.2989E-02   -0.2312E-02   -0.1446E-02   -0.9865E-03
  (  3,  3,  6) (  3,  3,  6) (  3,  3,  6) (  3,  3,  6) (  3,  3,  6)
    -0.5436E-03   -0.6605E-03   -0.5287E-03   -0.3237E-03   -0.2398E-03
  (  3,  3,  6) (  3,  3,  6) (  3,  3,  6) (  3,  3,  6) (  3,  3,  6)
    -0.1309E-03   -0.1541E-03   -0.1203E-03   -0.8086E-04   -0.5660E-04
  (  3,  3,  6) (  3,  3,  6) (  3,  3,  6) (  3,  3,  6) (  3,  3,  6)
    -0.3459E-04   -0.3563E-04   -0.2966E-04   -0.2029E-04   -0.1442E-04
  (  3,  3,  6) (  3,  3,  6) (  3,  3,  6) (  3,  3,  6) (  3,  3,  6)
    -0.7430E-05
  (  3,  3,  6)


 OUTPUT CONTROL FOR STRESS PERIOD    5   TIME STEP    5
    SAVE HEAD FOR ALL LAYERS

 HEAD WILL BE SAVED ON UNIT   21 AT END OF TIME STEP    5, STRESS PERIOD    5
 
 SOLVING FOR HEAD 
    36 ITERATIONS FOR TIME STEP   6 IN STRESS PERIOD    5

 MAXIMUM HEAD CHANGE FOR EACH ITERATION:

    HEAD CHANGE   HEAD CHANGE   HEAD CHANGE   HEAD CHANGE   HEAD CHANGE
  LAYER,ROW,COL LAYER,ROW,COL LAYER,ROW,COL LAYER,ROW,COL LAYER,ROW,COL
 ----------------------------------------------------------------------
     0.4413        0.5394       -0.1609        -1.515        0.7217    
  (  3,  3,  7) (  3,  1,  9) (  3,  1, 10) (  3,  1, 10) (  3,  1,  2)
     0.9203E-01   -0.6441E-01   -0.5578E-01   -0.2991E-01   -0.1912E-01
  (  2,  8, 10) (  3,  3,  7) (  3,  3,  7) (  3,  3,  6) (  3,  3,  7)
    -0.7842E-02   -0.1268E-01   -0.1066E-01   -0.5780E-02   -0.3832E-02
  (  3,  3,  6) (  3,  3,  7) (  3,  3,  6) (  3,  3,  7) (  3,  3,  6)
    -0.1666E-02   -0.2489E-02   -0.2085E-02   -0.1206E-02   -0.7854E-03
  (  3,  3,  6) (  3,  3,  6) (  3,  3,  6) (  3,  3,  6) (  3,  3,  6)
    -0.3913E-03   -0.5181E-03   -0.4420E-03   -0.2562E-03   -0.1813E-03
  (  3,  3,  6) (  3,  3,  6) (  3,  3,  6) (  3,  3,  6) (  3,  3,  6)
    -0.9220E-04   -0.1150E-03   -0.9577E-04   -0.6199E-04   -0.4213E-04
  (  3,  3,  6) (  3,  3,  6) (  3,  3,  6) (  3,  3,  6) (  3,  3,  6)
    -0.2382E-04   -0.2590E-04   -0.2389E-04   -0.1555E-04   -0.1095E-04
  (  3,  3,  6) (  3,  3,  6) (  3,  3,  6) (  3,  3,  6) (  3,  3,  6)
    -0.3892E-05
  (  3,  3,  6)


 OUTPUT CONTROL FOR STRESS PERIOD    5   TIME STEP    6
    PRINT BUDGET
    PRINT HEAD FOR ALL LAYERS
    SAVE HEAD FOR ALL LAYERS
    SAVE DRAWDOWN FOR ALL LAYERS
1
              HEAD IN LAYER   1 AT END OF TIME STEP   6 IN STRESS PERIOD    5
  ---------------------------------------------------------------------------

           1       2       3       4       5       6       7       8       9      10
 ...................................................................................
   1    22.22   21.87   21.22   20.80   20.60   20.60   20.80   21.21   21.87   22.21
   2    21.18   20.69   20.27   19.97   19.82   19.82   19.97   20.26   20.68   21.18
   3    19.68   19.19   18.82   18.58   18.46   18.45   18.57   18.82   19.18   19.67
   4    17.62   17.19   16.90   16.71   16.61   16.61   16.70   16.89   17.18   17.61
   5    14.71   14.62   14.52   14.44   14.39   14.39   14.43   14.51   14.61   14.70
   6    12.09   12.06   12.02   11.98   11.96   11.96   11.98   12.02   12.05   12.08
   7     9.52    9.50    9.46    9.42    9.40    9.40    9.42    9.46    9.49    9.52
   8     7.00    6.94    6.84    6.74    6.69    6.69    6.74    6.84    6.94    7.00
   9     4.65    4.48    4.17    3.83    3.68    3.68    3.83    4.17    4.48    4.65
  10     2.95    2.52    1.60    0.00    0.00    0.00    0.00    1.60    2.52    2.95
1
              HEAD IN LAYER   2 AT END OF TIME STEP   6 IN STRESS PERIOD    5
  ---------------------------------------------------------------------------

           1       2       3       4       5       6       7       8       9      10
 ...................................................................................
   1     2.79    2.83    2.85    2.85    2.85    2.83    2.81    2.78    2.74    2.69
   2     2.59    4.30    4.14    3.69    3.24    2.89    2.94    3.28    3.50    2.43
   3     2.32    3.57    3.21    2.45    1.33   -0.20    0.21    1.54    2.36    2.12
   4     2.00    2.92    2.63    2.07    1.36    0.54    0.70    1.42    1.94    1.79
   5     1.64    2.23    2.12    1.88    1.62    1.41    1.41    1.54    1.67    1.45
   6     1.26    1.52    1.47    1.37    1.27    1.20    1.18    1.20    1.22    1.10
   7     0.87    0.70    0.63    0.57    0.52    0.49    0.48    0.50    0.54    0.74
   8     0.48   -0.23   -0.39   -0.47   -0.51   -0.53   -0.51   -0.46   -0.31    0.38
   9     0.12   -1.17   -1.49   -1.67   -1.74   -1.75   -1.69   -1.52   -1.21    0.05
  10    -0.21   -0.28   -0.34   -0.38   -0.40   -0.41   -0.39   -0.35   -0.31   -0.24
1
              HEAD IN LAYER   3 AT END OF TIME STEP   6 IN STRESS PERIOD    5
  ---------------------------------------------------------------------------

           1       2       3       4       5       6       7       8       9      10
 ...................................................................................
   1   -11.00  -11.15  -11.42  -11.78  -12.15  -12.45  -12.57  -12.53  -12.44  -12.38
   2   -11.22  -11.45  -11.91  -12.57  -13.37  -14.08  -14.12  -13.70  -13.28  -13.04
   3   -11.33  -11.69  -12.46  -13.77  -15.91  -19.44  -18.55  -15.85  -14.39  -13.74
   4   -10.82  -11.10  -11.70  -12.65  -14.00  -15.80  -15.50  -14.14  -13.27  -12.84
   5    -9.88  -10.03  -10.33  -10.75  -11.24  -11.64  -11.70  -11.50  -11.27  -11.14
   6    -8.93   -9.00   -9.13   -9.30   -9.48   -9.62   -9.69   -9.68   -9.64   -9.61
   7    -8.17   -8.20   -8.25   -8.33   -8.40   -8.46   -8.50   -8.52   -8.52   -8.52
   8    -7.64   -7.66   -7.68   -7.71   -7.75   -7.78   -7.80   -7.81   -7.82   -7.82
   9    -7.32   -7.33   -7.35   -7.36   -7.38   -7.39   -7.41   -7.41   -7.42   -7.42
  10    -7.17   -7.18   -7.19   -7.20   -7.21   -7.21   -7.22   -7.23   -7.23   -7.23

 HEAD WILL BE SAVED ON UNIT   21 AT END OF TIME STEP    6, STRESS PERIOD    5

 DRAWDOWN WILL BE SAVED ON UNIT   22 AT END OF TIME STEP    6, STRESS PERIOD    5
1
  VOLUMETRIC BUDGET FOR ENTIRE MODEL AT END OF TIME STEP    6, STRESS PERIOD   5
  ------------------------------------------------------------------------------

     CUMULATIVE VOLUMES      L**3       RATES FOR THIS TIME STEP      L**3/T
     ------------------                 ------------------------

           IN:                                      IN:
           ---                                      ---
             STORAGE =     8398025.0000               STORAGE =        5118.8804
       CONSTANT HEAD =        2855.0574         CONSTANT HEAD =           9.4466
               WELLS =    43866000.0000                 WELLS =       30000.0000
    INST. IB STORAGE =    14387751.0000      INST. IB STORAGE =        6975.2051
    DELAY IB STORAGE =    19462136.0000      DELAY IB STORAGE =       16060.2314

            TOTAL IN =    86116768.0000              TOTAL IN =       58163.7617

          OUT:                                     OUT:
          ----                                     ----
             STORAGE =           0.0000               STORAGE =           0.0000
       CONSTANT HEAD =    42280772.0000         CONSTANT HEAD =       28163.8359
               WELLS =    43836000.0000                 WELLS =       30000.0000
    INST. IB STORAGE =           0.0000      INST. IB STORAGE =           0.0000
    DELAY IB STORAGE =           0.0000      DELAY IB STORAGE =           0.0000

           TOTAL OUT =    86116768.0000             TOTAL OUT =       58163.8359

            IN - OUT =           0.0000              IN - OUT =      -7.4219E-02

 PERCENT DISCREPANCY =           0.00     PERCENT DISCREPANCY =          -0.00






         TIME SUMMARY AT END OF TIME STEP    6 IN STRESS PERIOD    5
                    SECONDS     MINUTES      HOURS       DAYS        YEARS
                    -----------------------------------------------------------
   TIME STEP LENGTH 9.18681E+06 1.53113E+05  2551.9      106.33     0.29111    
 STRESS PERIOD TIME 3.15619E+07 5.26032E+05  8767.2      365.30      1.0001    
         TOTAL TIME 1.26334E+08 2.10557E+06  35093.      1462.2      4.0033    
1

                               VOLUMETRIC BUDGET FOR SYSTEMS OF DELAY INTERBEDS
                                          AT END OF TIME STEP  6 IN STRESS PERIOD  5

          |   C U M U L A T I V E   V O L U M E S   L**3           | R A T E S   F O R  T H I S  T I M E  S T E P   L**3/T  |
   SYSTEM |    CHANGE IN     BOUNDARY                    PERCENT   |    CHANGE IN     BOUNDARY                    PERCENT   |
   NUMBER |     STORAGE        FLOW           SUM      DISCREPANCY |     STORAGE        FLOW           SUM      DISCREPANCY |
  --------|--------------------------------------------------------|--------------------------------------------------------|
      1     18486.        -18486.         0.0000         0.0000         13.137        -13.137        0.19073E-05    0.14519E-04
      2    0.19444E+08   -0.19444E+08    -2.0000       -0.10286E-04     16047.        -16047.        0.19531E-02    0.12171E-04
  --------|--------------------------------------------------------|--------------------------------------------------------|
 TOTALS:    0.19462E+08   -0.19462E+08    -2.0000       -0.10276E-04     16060.        -16060.        0.19531E-02    0.12161E-04
1
                            STRESS PERIOD NO.    6, LENGTH =   365.3000    
                            -----------------------------------------------

                              NUMBER OF TIME STEPS =     6

                               MULTIPLIER FOR DELT =     1.300

                            INITIAL TIME STEP SIZE =   28.63744    

 REUSING NON-PARAMETER WELLS FROM LAST STRESS PERIOD

     14 WELLS
 
 SOLVING FOR HEAD 

    43 ITERATIONS FOR TIME STEP   1 IN STRESS PERIOD    6

 MAXIMUM HEAD CHANGE FOR EACH ITERATION:

    HEAD CHANGE   HEAD CHANGE   HEAD CHANGE   HEAD CHANGE   HEAD CHANGE
  LAYER,ROW,COL LAYER,ROW,COL LAYER,ROW,COL LAYER,ROW,COL LAYER,ROW,COL
 ----------------------------------------------------------------------
      1.856         4.229         2.979        -2.146        -3.091    
  (  3,  2, 10) (  3,  1,  7) (  3,  1,  1) (  3,  1,  8) (  3,  1,  6)
    -0.3267       -0.7640        -1.762        0.3500        0.3436E-01
  (  3,  1, 10) (  3,  3, 10) (  3,  1, 10) (  3, 10,  1) (  2, 10,  1)
    -0.6352E-01   -0.1505E-01   -0.8972E-02   -0.7346E-02   -0.3960E-02
  (  2,  8,  1) (  3,  3,  7) (  3,  3,  6) (  3,  3,  7) (  3,  3,  6)
    -0.3700E-02   -0.2135E-02   -0.1498E-02    0.2154E-02    0.2907E-02
  (  3,  3,  6) (  3,  3,  7) (  3,  3,  6) (  3,  1,  1) (  3,  3, 10)
     0.1800E-02    0.4105E-02    0.2755E-02    0.2023E-02    0.1506E-02
  (  3,  1,  1) (  3,  1, 10) (  3,  2,  9) (  3,  1, 10) (  3,  1, 10)
     0.1049E-02    0.9760E-03    0.6868E-03    0.4851E-03    0.3644E-03
  (  3,  1, 10) (  3,  2,  9) (  3,  1, 10) (  3,  1, 10) (  3,  1, 10)
     0.2384E-03    0.2387E-03    0.1642E-03    0.1184E-03    0.8811E-04
  (  3,  1, 10) (  3,  2,  9) (  3,  2,  9) (  3,  1, 10) (  3,  1, 10)
     0.6179E-04    0.5772E-04    0.4006E-04    0.2834E-04    0.2186E-04
  (  3,  1, 10) (  3,  2,  9) (  3,  2,  9) (  3,  1,  9) (  3,  1, 10)
     0.1438E-04    0.1396E-04    0.9876E-05
  (  3,  1, 10) (  3,  2,  9) (  3,  1, 10)


 OUTPUT CONTROL FOR STRESS PERIOD    6   TIME STEP    1
    SAVE HEAD FOR ALL LAYERS

 HEAD WILL BE SAVED ON UNIT   21 AT END OF TIME STEP    1, STRESS PERIOD    6
 
 SOLVING FOR HEAD 
    41 ITERATIONS FOR TIME STEP   2 IN STRESS PERIOD    6

 MAXIMUM HEAD CHANGE FOR EACH ITERATION:

    HEAD CHANGE   HEAD CHANGE   HEAD CHANGE   HEAD CHANGE   HEAD CHANGE
  LAYER,ROW,COL LAYER,ROW,COL LAYER,ROW,COL LAYER,ROW,COL LAYER,ROW,COL
 ----------------------------------------------------------------------
      1.297         3.877         2.728        -1.886        -3.249    
  (  3,  3,  5) (  3,  1, 10) (  3,  1,  1) (  3,  2, 10) (  3,  1,  5)
    -0.2498       -0.5961        -1.527        0.5945        0.1163    
  (  3,  1, 10) (  3,  2, 10) (  3,  1, 10) (  3,  1, 10) (  2, 10, 10)
    -0.5403E-01   -0.1449E-01   -0.1081E-01   -0.6782E-02   -0.5323E-02
  (  2,  7,  1) (  3,  3,  6) (  3,  3,  6) (  3,  3,  6) (  3,  3,  6)
    -0.1328E-02   -0.1907E-02    0.3076E-02    0.2137E-02    0.4881E-02
  (  3,  3,  6) (  3,  3,  6) (  3,  2, 10) (  3,  1,  1) (  3,  1, 10)
     0.2515E-02    0.2653E-02    0.1782E-02    0.1268E-02    0.9289E-03
  (  3,  1, 10) (  3,  1, 10) (  3,  1,  8) (  3,  1, 10) (  3,  1, 10)
     0.6243E-03    0.5813E-03    0.4253E-03    0.2907E-03    0.2166E-03
  (  3,  1, 10) (  3,  1,  8) (  3,  1, 10) (  3,  1, 10) (  3,  1,  4)
     0.1359E-03    0.1425E-03    0.9571E-04    0.6874E-04    0.5000E-04
  (  3,  1, 10) (  3,  1, 10) (  3,  1,  8) (  3,  1,  4) (  3,  1, 10)
     0.3395E-04    0.3112E-04    0.2324E-04    0.1599E-04    0.1205E-04
  (  3,  1, 10) (  3,  1,  4) (  3,  1, 10) (  3,  1,  8) (  3,  1,  4)
     0.6881E-05
  (  3,  1, 10)


 OUTPUT CONTROL FOR STRESS PERIOD    6   TIME STEP    2
    SAVE HEAD FOR ALL LAYERS

 HEAD WILL BE SAVED ON UNIT   21 AT END OF TIME STEP    2, STRESS PERIOD    6
 
 SOLVING FOR HEAD 
    38 ITERATIONS FOR TIME STEP   3 IN STRESS PERIOD    6

 MAXIMUM HEAD CHANGE FOR EACH ITERATION:

    HEAD CHANGE   HEAD CHANGE   HEAD CHANGE   HEAD CHANGE   HEAD CHANGE
  LAYER,ROW,COL LAYER,ROW,COL LAYER,ROW,COL LAYER,ROW,COL LAYER,ROW,COL
 ----------------------------------------------------------------------
      1.408         3.075         2.347        -1.825        -3.178    
  (  3,  4, 10) (  3,  1, 10) (  3,  1,  1) (  3,  2, 10) (  3,  1,  1)
     0.2467       -0.3875       -0.6699        0.5283       -0.4238E-01
  (  3, 10, 10) (  3,  2, 10) (  3,  1, 10) (  3,  1, 10) (  2,  1,  5)
    -0.2855E-01   -0.1685E-01   -0.9978E-02   -0.6774E-02   -0.3241E-02
  (  2,  7,  1) (  3,  3,  6) (  3,  3,  6) (  3,  3,  6) (  3,  3,  6)
     0.1581E-02    0.3939E-02    0.3938E-02    0.2760E-02    0.2028E-02
  (  3,  7,  1) (  3,  1,  1) (  3,  1,  3) (  3,  1,  8) (  3,  1,  3)
     0.1163E-02    0.1336E-02    0.9072E-03    0.6159E-03    0.4469E-03
  (  3,  1,  7) (  3,  2,  2) (  3,  1,  7) (  3,  1,  3) (  3,  1,  8)
     0.2610E-03    0.2864E-03    0.2055E-03    0.1363E-03    0.9925E-04
  (  3,  1,  6) (  3,  1,  1) (  3,  1,  4) (  3,  1,  8) (  3,  1,  3)
     0.5819E-04    0.6471E-04    0.4411E-04    0.3047E-04    0.2233E-04
  (  3,  1,  7) (  3,  2,  2) (  3,  1,  7) (  3,  1,  3) (  3,  1,  7)
     0.1303E-04    0.1231E-04    0.9404E-05
  (  3,  1,  6) (  3,  1,  2) (  3,  1,  3)


 OUTPUT CONTROL FOR STRESS PERIOD    6   TIME STEP    3
    SAVE HEAD FOR ALL LAYERS

 HEAD WILL BE SAVED ON UNIT   21 AT END OF TIME STEP    3, STRESS PERIOD    6
 
 SOLVING FOR HEAD 
    35 ITERATIONS FOR TIME STEP   4 IN STRESS PERIOD    6

 MAXIMUM HEAD CHANGE FOR EACH ITERATION:

    HEAD CHANGE   HEAD CHANGE   HEAD CHANGE   HEAD CHANGE   HEAD CHANGE
  LAYER,ROW,COL LAYER,ROW,COL LAYER,ROW,COL LAYER,ROW,COL LAYER,ROW,COL
 ----------------------------------------------------------------------
     0.9067         2.177         1.426        -1.601        -2.912    
  (  3,  3,  6) (  3,  1, 10) (  3,  2,  1) (  3,  1, 10) (  3,  1,  1)
     0.6634        0.3161        0.5953E-01   -0.3334E-01   -0.2542E-01
  (  3, 10,  1) (  3,  9,  3) (  2,  1,  6) (  3,  3,  6) (  3,  3,  7)
     0.3282E-01   -0.1587E-01   -0.8384E-02   -0.5498E-02    0.2824E-02
  (  2,  6,  1) (  3,  3,  7) (  3,  3,  6) (  3,  3,  7) (  3,  1, 10)
    -0.1907E-02    0.1833E-02    0.1302E-02    0.7855E-03    0.6544E-03
  (  2,  6,  1) (  3,  1,  1) (  3,  1,  2) (  3,  1, 10) (  3,  1,  2)
     0.3438E-03    0.3968E-03    0.2686E-03    0.1971E-03    0.1322E-03
  (  3,  1, 10) (  3,  1,  2) (  3,  1,  1) (  3,  1,  2) (  3,  1, 10)
     0.8573E-04    0.8623E-04    0.6479E-04    0.4168E-04    0.3291E-04
  (  3,  1,  2) (  3,  1,  1) (  3,  1,  2) (  3,  1, 10) (  3,  1,  2)
    -0.2397E-04   -0.1973E-04   -0.1654E-04   -0.1218E-04   -0.6844E-05
  (  3,  3,  6) (  3,  3,  6) (  3,  3,  6) (  3,  3,  6) (  3,  3,  6)


 OUTPUT CONTROL FOR STRESS PERIOD    6   TIME STEP    4
    SAVE HEAD FOR ALL LAYERS

 HEAD WILL BE SAVED ON UNIT   21 AT END OF TIME STEP    4, STRESS PERIOD    6
 
 SOLVING FOR HEAD 
    36 ITERATIONS FOR TIME STEP   5 IN STRESS PERIOD    6

 MAXIMUM HEAD CHANGE FOR EACH ITERATION:

    HEAD CHANGE   HEAD CHANGE   HEAD CHANGE   HEAD CHANGE   HEAD CHANGE
  LAYER,ROW,COL LAYER,ROW,COL LAYER,ROW,COL LAYER,ROW,COL LAYER,ROW,COL
 ----------------------------------------------------------------------
     0.6563         1.267        0.8748        -1.541        -2.134    
  (  3,  1, 10) (  3,  1,  9) (  3,  1,  1) (  3,  1, 10) (  3,  1,  1)
     0.7371        0.3920        0.1039        0.3726E-01   -0.2916E-01
  (  3,  1, 10) (  3,  2,  2) (  2,  1,  9) (  2, 10,  1) (  2, 10, 10)
     0.3477E-01   -0.1477E-01   -0.1157E-01   -0.6508E-02   -0.4557E-02
  (  2,  7,  1) (  3,  3,  6) (  3,  3,  6) (  3,  3,  6) (  3,  3,  6)
    -0.2089E-02   -0.3016E-02   -0.2344E-02   -0.1423E-02   -0.9488E-03
  (  3,  3,  6) (  3,  3,  6) (  3,  3,  6) (  3,  3,  6) (  3,  3,  6)
    -0.4923E-03   -0.6423E-03   -0.5167E-03   -0.3036E-03   -0.2226E-03
  (  3,  3,  6) (  3,  3,  6) (  3,  3,  6) (  3,  3,  6) (  3,  3,  6)
    -0.1139E-03   -0.1431E-03   -0.1120E-03   -0.7344E-04   -0.4986E-04
  (  3,  3,  6) (  3,  3,  6) (  3,  3,  6) (  3,  3,  6) (  3,  3,  6)
    -0.2928E-04   -0.3143E-04   -0.2677E-04   -0.1709E-04   -0.1142E-04
  (  3,  3,  6) (  3,  3,  6) (  3,  3,  6) (  3,  3,  6) (  3,  3,  6)
    -0.5821E-05
  (  3,  3,  6)


 OUTPUT CONTROL FOR STRESS PERIOD    6   TIME STEP    5
    SAVE HEAD FOR ALL LAYERS

 HEAD WILL BE SAVED ON UNIT   21 AT END OF TIME STEP    5, STRESS PERIOD    6
 
 SOLVING FOR HEAD 
    35 ITERATIONS FOR TIME STEP   6 IN STRESS PERIOD    6

 MAXIMUM HEAD CHANGE FOR EACH ITERATION:

    HEAD CHANGE   HEAD CHANGE   HEAD CHANGE   HEAD CHANGE   HEAD CHANGE
  LAYER,ROW,COL LAYER,ROW,COL LAYER,ROW,COL LAYER,ROW,COL LAYER,ROW,COL
 ----------------------------------------------------------------------
     0.4366        0.7541        0.2415        -1.641        0.7546    
  (  3,  3, 10) (  3,  1, 10) (  3,  2,  1) (  3,  1, 10) (  3, 10,  1)
     0.5696E-01   -0.5853E-01   -0.5220E-01   -0.2475E-01   -0.1508E-01
  (  2,  3,  1) (  3,  3,  7) (  3,  3,  7) (  3,  3,  7) (  3,  3,  7)
    -0.1101E-01   -0.9869E-02   -0.8321E-02   -0.4544E-02   -0.2954E-02
  (  2,  7,  1) (  3,  3,  7) (  3,  3,  6) (  3,  3,  7) (  3,  3,  6)
    -0.1302E-02   -0.1929E-02   -0.1628E-02   -0.9315E-03   -0.6131E-03
  (  3,  3,  6) (  3,  3,  6) (  3,  3,  6) (  3,  3,  6) (  3,  3,  6)
    -0.3043E-03   -0.3992E-03   -0.3407E-03   -0.2002E-03   -0.1403E-03
  (  3,  3,  6) (  3,  3,  6) (  3,  3,  6) (  3,  3,  6) (  3,  3,  6)
    -0.7313E-04   -0.8768E-04   -0.7499E-04   -0.4897E-04   -0.3192E-04
  (  3,  3,  6) (  3,  3,  6) (  3,  3,  6) (  3,  3,  6) (  3,  3,  6)
    -0.1935E-04   -0.1853E-04   -0.1559E-04   -0.1056E-04   -0.4413E-05
  (  3,  3,  6) (  3,  3,  6) (  3,  3,  6) (  3,  3,  6) (  3,  3,  6)


 OUTPUT CONTROL FOR STRESS PERIOD    6   TIME STEP    6
    PRINT BUDGET
    PRINT HEAD FOR ALL LAYERS
    SAVE HEAD FOR ALL LAYERS
    SAVE DRAWDOWN FOR ALL LAYERS
1
              HEAD IN LAYER   1 AT END OF TIME STEP   6 IN STRESS PERIOD    6
  ---------------------------------------------------------------------------

           1       2       3       4       5       6       7       8       9      10
 ...................................................................................
   1    22.10   21.75   21.09   20.67   20.47   20.47   20.67   21.09   21.74   22.09
   2    21.06   20.56   20.14   19.85   19.69   19.69   19.84   20.14   20.55   21.05
   3    19.56   19.07   18.70   18.46   18.33   18.33   18.45   18.69   19.06   19.55
   4    17.51   17.08   16.78   16.59   16.50   16.49   16.58   16.77   17.07   17.50
   5    14.60   14.51   14.41   14.33   14.28   14.28   14.32   14.40   14.50   14.59
   6    11.99   11.96   11.92   11.88   11.86   11.86   11.88   11.92   11.96   11.98
   7     9.44    9.41    9.38    9.34    9.32    9.31    9.34    9.37    9.41    9.43
   8     6.93    6.87    6.78    6.68    6.62    6.62    6.68    6.78    6.87    6.93
   9     4.60    4.43    4.13    3.79    3.65    3.64    3.79    4.13    4.43    4.60
  10     2.92    2.50    1.58    0.00    0.00    0.00    0.00    1.58    2.50    2.92
1
              HEAD IN LAYER   2 AT END OF TIME STEP   6 IN STRESS PERIOD    6
  ---------------------------------------------------------------------------

           1       2       3       4       5       6       7       8       9      10
 ...................................................................................
   1     2.34    2.37    2.39    2.39    2.39    2.37    2.35    2.32    2.28    2.24
   2     2.15    3.77    3.60    3.14    2.68    2.33    2.38    2.71    2.95    1.99
   3     1.90    3.06    2.69    1.92    0.79   -0.75   -0.34    0.98    1.82    1.70
   4     1.60    2.45    2.15    1.58    0.86    0.04    0.20    0.91    1.45    1.39
   5     1.26    1.82    1.70    1.45    1.19    0.98    0.97    1.10    1.23    1.06
   6     0.90    1.17    1.12    1.02    0.91    0.84    0.82    0.83    0.85    0.73
   7     0.54    0.41    0.35    0.29    0.24    0.21    0.19    0.20    0.24    0.40
   8     0.17   -0.46   -0.61   -0.69   -0.73   -0.75   -0.73   -0.69   -0.55    0.07
   9    -0.17   -1.36   -1.66   -1.84   -1.92   -1.93   -1.86   -1.70   -1.41   -0.25
  10    -0.48   -0.55   -0.61   -0.65   -0.67   -0.67   -0.66   -0.63   -0.58   -0.52
1
              HEAD IN LAYER   3 AT END OF TIME STEP   6 IN STRESS PERIOD    6
  ---------------------------------------------------------------------------

           1       2       3       4       5       6       7       8       9      10
 ...................................................................................
   1   -11.96  -12.11  -12.39  -12.76  -13.15  -13.46  -13.59  -13.56  -13.47  -13.41
   2   -12.17  -12.40  -12.87  -13.55  -14.36  -15.08  -15.13  -14.71  -14.29  -14.06
   3   -12.23  -12.59  -13.37  -14.71  -16.87  -20.41  -19.53  -16.82  -15.36  -14.71
   4   -11.63  -11.93  -12.53  -13.49  -14.86  -16.68  -16.39  -15.03  -14.16  -13.73
   5   -10.59  -10.75  -11.05  -11.48  -11.98  -12.39  -12.46  -12.26  -12.03  -11.90
   6    -9.51   -9.59   -9.72   -9.90  -10.09  -10.24  -10.31  -10.30  -10.27  -10.24
   7    -8.64   -8.67   -8.73   -8.81   -8.88   -8.95   -8.99   -9.01   -9.02   -9.02
   8    -8.01   -8.03   -8.06   -8.09   -8.13   -8.16   -8.18   -8.20   -8.21   -8.21
   9    -7.62   -7.63   -7.65   -7.66   -7.68   -7.70   -7.71   -7.72   -7.73   -7.73
  10    -7.43   -7.44   -7.45   -7.46   -7.47   -7.48   -7.49   -7.50   -7.50   -7.50

 HEAD WILL BE SAVED ON UNIT   21 AT END OF TIME STEP    6, STRESS PERIOD    6

 DRAWDOWN WILL BE SAVED ON UNIT   22 AT END OF TIME STEP    6, STRESS PERIOD    6
1
  VOLUMETRIC BUDGET FOR ENTIRE MODEL AT END OF TIME STEP    6, STRESS PERIOD   6
  ------------------------------------------------------------------------------

     CUMULATIVE VOLUMES      L**3       RATES FOR THIS TIME STEP      L**3/T
     ------------------                 ------------------------

           IN:                                      IN:
           ---                                      ---
             STORAGE =    10236756.0000               STORAGE =        4978.6987
       CONSTANT HEAD =        7727.2324         CONSTANT HEAD =          15.9224
               WELLS =    54825000.0000                 WELLS =       30000.0000
    INST. IB STORAGE =    16803872.0000      INST. IB STORAGE =        6417.8242
    DELAY IB STORAGE =    25424872.0000      DELAY IB STORAGE =       16453.6738

            TOTAL IN =   107298224.0000              TOTAL IN =       57866.1211

          OUT:                                     OUT:
          ----                                     ----
             STORAGE =           0.0000               STORAGE =           0.0000
       CONSTANT HEAD =    52503236.0000         CONSTANT HEAD =       27866.2051
               WELLS =    54795000.0000                 WELLS =       30000.0000
    INST. IB STORAGE =           0.0000      INST. IB STORAGE =           0.0000
    DELAY IB STORAGE =           0.0000      DELAY IB STORAGE =           0.0000

           TOTAL OUT =   107298240.0000             TOTAL OUT =       57866.2031

            IN - OUT =         -16.0000              IN - OUT =      -8.2031E-02

 PERCENT DISCREPANCY =          -0.00     PERCENT DISCREPANCY =          -0.00






         TIME SUMMARY AT END OF TIME STEP    6 IN STRESS PERIOD    6
                    SECONDS     MINUTES      HOURS       DAYS        YEARS
                    -----------------------------------------------------------
   TIME STEP LENGTH 9.18681E+06 1.53113E+05  2551.9      106.33     0.29111    
 STRESS PERIOD TIME 3.15619E+07 5.26032E+05  8767.2      365.30      1.0001    
         TOTAL TIME 1.57896E+08 2.63160E+06  43860.      1827.5      5.0034    
1

                               VOLUMETRIC BUDGET FOR SYSTEMS OF DELAY INTERBEDS
                                          AT END OF TIME STEP  6 IN STRESS PERIOD  6

          |   C U M U L A T I V E   V O L U M E S   L**3           | R A T E S   F O R  T H I S  T I M E  S T E P   L**3/T  |
   SYSTEM |    CHANGE IN     BOUNDARY                    PERCENT   |    CHANGE IN     BOUNDARY                    PERCENT   |
   NUMBER |     STORAGE        FLOW           SUM      DISCREPANCY |     STORAGE        FLOW           SUM      DISCREPANCY |
  --------|--------------------------------------------------------|--------------------------------------------------------|
      1     23384.        -23384.         0.0000         0.0000         12.680        -12.680       -0.38147E-05   -0.30085E-04
      2    0.25401E+08   -0.25401E+08    -2.0000       -0.78736E-05     16441.        -16441.       -0.19531E-02   -0.11880E-04
  --------|--------------------------------------------------------|--------------------------------------------------------|
 TOTALS:    0.25425E+08   -0.25425E+08    -2.0000       -0.78663E-05     16454.        -16454.       -0.19531E-02   -0.11870E-04
1
                            STRESS PERIOD NO.    7, LENGTH =   365.3000    
                            -----------------------------------------------

                              NUMBER OF TIME STEPS =     6

                               MULTIPLIER FOR DELT =     1.300

                            INITIAL TIME STEP SIZE =   28.63744    

 REUSING NON-PARAMETER WELLS FROM LAST STRESS PERIOD

     14 WELLS
 
 SOLVING FOR HEAD 

    44 ITERATIONS FOR TIME STEP   1 IN STRESS PERIOD    7

 MAXIMUM HEAD CHANGE FOR EACH ITERATION:

    HEAD CHANGE   HEAD CHANGE   HEAD CHANGE   HEAD CHANGE   HEAD CHANGE
  LAYER,ROW,COL LAYER,ROW,COL LAYER,ROW,COL LAYER,ROW,COL LAYER,ROW,COL
 ----------------------------------------------------------------------
      2.046         4.529         3.007        -2.039        -3.143    
  (  3,  1,  1) (  3,  1,  9) (  3,  2,  1) (  3,  1,  8) (  3,  1,  1)
    -0.3508       -0.8265        -1.905       -0.9899        0.9097    
  (  3,  1, 10) (  3,  2,  9) (  3,  1, 10) (  3,  1,  1) (  3,  1,  1)
    -0.7504E-01   -0.1193E-01   -0.1117E-01   -0.5583E-02   -0.6334E-02
  (  2,  8,  1) (  3,  3,  6) (  3,  3,  6) (  3,  3,  6) (  3,  3,  6)
    -0.1954E-02   -0.3314E-02    0.2022E-02   -0.1305E-02    0.2433E-02
  (  3,  3,  7) (  3,  3,  6) (  3,  1,  1) (  3,  3,  6) (  3,  1,  1)
     0.1546E-02    0.2086E-02    0.3536E-02    0.2409E-02    0.1699E-02
  (  3,  1, 10) (  3,  1,  1) (  3,  1, 10) (  3,  2,  9) (  3,  1,  9)
     0.1165E-02    0.1092E-02    0.7626E-03    0.5498E-03    0.4048E-03
  (  3,  1, 10) (  3,  2,  9) (  3,  1, 10) (  3,  1,  9) (  3,  1, 10)
     0.2704E-03    0.2679E-03    0.1853E-03    0.1314E-03    0.1005E-03
  (  3,  1,  9) (  3,  2,  9) (  3,  2,  9) (  3,  1, 10) (  3,  1,  9)
     0.6772E-04    0.6523E-04    0.4531E-04    0.3266E-04    0.2400E-04
  (  3,  1, 10) (  3,  2,  9) (  3,  2,  9) (  3,  1,  9) (  3,  2,  9)
     0.1604E-04    0.1543E-04    0.1080E-04    0.6281E-05
  (  3,  1,  9) (  3,  1, 10) (  3,  2,  9) (  3,  1, 10)


 OUTPUT CONTROL FOR STRESS PERIOD    7   TIME STEP    1
    SAVE HEAD FOR ALL LAYERS

 HEAD WILL BE SAVED ON UNIT   21 AT END OF TIME STEP    1, STRESS PERIOD    7
 
 SOLVING FOR HEAD 
    41 ITERATIONS FOR TIME STEP   2 IN STRESS PERIOD    7

 MAXIMUM HEAD CHANGE FOR EACH ITERATION:

    HEAD CHANGE   HEAD CHANGE   HEAD CHANGE   HEAD CHANGE   HEAD CHANGE
  LAYER,ROW,COL LAYER,ROW,COL LAYER,ROW,COL LAYER,ROW,COL LAYER,ROW,COL
 ----------------------------------------------------------------------
      2.070         3.539         2.587        -1.591        -3.362    
  (  3,  1, 10) (  3,  1,  6) (  3,  2,  1) (  3,  2, 10) (  3,  1,  1)
    -0.2821       -0.6445        -1.635        0.4586        0.4419E-01
  (  3,  1, 10) (  3,  2, 10) (  3,  1, 10) (  3, 10,  1) (  2, 10,  9)
    -0.6844E-01   -0.1333E-01   -0.7875E-02   -0.6455E-02   -0.2774E-02
  (  2,  8,  1) (  3,  3,  6) (  3,  3,  6) (  3,  3,  7) (  3,  3,  6)
    -0.2607E-02    0.2930E-02    0.1464E-02    0.3888E-02    0.1802E-02
  (  3,  3,  7) (  3,  1, 10) (  3,  7,  5) (  3,  1, 10) (  3,  1,  1)
     0.3556E-02    0.3466E-02    0.2362E-02    0.1567E-02    0.1173E-02
  (  3,  1,  1) (  3,  2,  2) (  3,  1,  1) (  3,  2,  8) (  3,  1,  1)
     0.7330E-03    0.7875E-03    0.5377E-03    0.3718E-03    0.2684E-03
  (  3,  1, 10) (  3,  2,  8) (  3,  2,  8) (  3,  2,  8) (  3,  1,  1)
     0.1781E-03    0.1833E-03    0.1274E-03    0.8473E-04    0.6415E-04
  (  3,  1,  1) (  3,  2,  8) (  3,  2,  8) (  3,  2,  8) (  3,  2,  8)
     0.3902E-04    0.4295E-04    0.2966E-04    0.2032E-04    0.1469E-04
  (  3,  1,  1) (  3,  2,  8) (  3,  2,  8) (  3,  1,  1) (  3,  2,  8)
     0.9491E-05
  (  3,  1,  1)


 OUTPUT CONTROL FOR STRESS PERIOD    7   TIME STEP    2
    SAVE HEAD FOR ALL LAYERS

 HEAD WILL BE SAVED ON UNIT   21 AT END OF TIME STEP    2, STRESS PERIOD    7
 
 SOLVING FOR HEAD 
    39 ITERATIONS FOR TIME STEP   3 IN STRESS PERIOD    7

 MAXIMUM HEAD CHANGE FOR EACH ITERATION:

    HEAD CHANGE   HEAD CHANGE   HEAD CHANGE   HEAD CHANGE   HEAD CHANGE
  LAYER,ROW,COL LAYER,ROW,COL LAYER,ROW,COL LAYER,ROW,COL LAYER,ROW,COL
 ----------------------------------------------------------------------
      1.211         2.955         2.248        -1.483        -3.337    
  (  3,  3, 10) (  3,  1,  8) (  3,  2,  3) (  3,  1, 10) (  3,  1,  1)
    -0.1809       -0.4408        -1.191        0.7050        0.1031    
  (  3,  1, 10) (  3,  2, 10) (  3,  1, 10) (  3,  1, 10) (  2, 10, 10)
    -0.5642E-01   -0.1583E-01   -0.1053E-01   -0.4958E-02   -0.3930E-02
  (  2, 10, 10) (  2,  1,  2) (  3,  3,  6) (  3,  3,  7) (  3,  3,  6)
     0.2435E-02    0.2243E-02    0.4318E-02    0.3749E-02    0.2726E-02
  (  3,  1,  1) (  3,  7,  1) (  3,  1,  1) (  3,  1, 10) (  3,  1, 10)
     0.1589E-02    0.1860E-02    0.1240E-02    0.8299E-03    0.6082E-03
  (  3,  1, 10) (  3,  1, 10) (  3,  2,  9) (  3,  1, 10) (  3,  1, 10)
     0.3752E-03    0.3938E-03    0.2790E-03    0.1827E-03    0.1310E-03
  (  3,  1, 10) (  3,  2,  9) (  3,  1, 10) (  3,  1, 10) (  3,  1, 10)
     0.7747E-04    0.8947E-04    0.5998E-04    0.3976E-04    0.2994E-04
  (  3,  1, 10) (  3,  1, 10) (  3,  2,  9) (  3,  1, 10) (  3,  1, 10)
     0.1860E-04    0.1884E-04    0.1329E-04    0.9183E-05
  (  3,  1, 10) (  3,  3, 10) (  3,  1,  9) (  3,  1, 10)


 OUTPUT CONTROL FOR STRESS PERIOD    7   TIME STEP    3
    SAVE HEAD FOR ALL LAYERS

 HEAD WILL BE SAVED ON UNIT   21 AT END OF TIME STEP    3, STRESS PERIOD    7
 
 SOLVING FOR HEAD 
    36 ITERATIONS FOR TIME STEP   4 IN STRESS PERIOD    7

 MAXIMUM HEAD CHANGE FOR EACH ITERATION:

    HEAD CHANGE   HEAD CHANGE   HEAD CHANGE   HEAD CHANGE   HEAD CHANGE
  LAYER,ROW,COL LAYER,ROW,COL LAYER,ROW,COL LAYER,ROW,COL LAYER,ROW,COL
 ----------------------------------------------------------------------
     0.8595         2.105         1.719        -1.409        -3.145    
  (  3,  3,  8) (  3,  1,  9) (  3,  1,  1) (  3,  1, 10) (  3,  1,  1)
     0.5219        0.2356        0.3125E-01   -0.3059E-01   -0.2042E-01
  (  3, 10, 10) (  3,  9,  6) (  3,  9,  1) (  3,  3,  7) (  3,  3,  7)
     0.1418E-01   -0.1303E-01   -0.9697E-02   -0.2433E-02   -0.2429E-02
  (  2,  5,  1) (  3,  3,  6) (  3,  3,  7) (  3,  3,  6) (  3,  3,  7)
     0.2861E-02    0.3401E-02    0.2327E-02    0.1445E-02    0.1076E-02
  (  3,  1, 10) (  3,  1,  1) (  3,  1,  3) (  3,  1, 10) (  3,  1,  1)
     0.5884E-03    0.6785E-03    0.4845E-03    0.3149E-03    0.2262E-03
  (  3,  1, 10) (  3,  1, 10) (  3,  1,  1) (  3,  1,  1) (  3,  1, 10)
     0.1292E-03    0.1479E-03    0.1030E-03    0.6758E-04    0.4908E-04
  (  3,  1, 10) (  3,  1,  1) (  3,  1,  3) (  3,  1, 10) (  3,  1,  1)
     0.2818E-04    0.2931E-04    0.2158E-04    0.1437E-04    0.1056E-04
  (  3,  1, 10) (  3,  1, 10) (  3,  1,  8) (  3,  1,  7) (  3,  1, 10)
     0.4761E-05
  (  3,  1, 10)


 OUTPUT CONTROL FOR STRESS PERIOD    7   TIME STEP    4
    SAVE HEAD FOR ALL LAYERS

 HEAD WILL BE SAVED ON UNIT   21 AT END OF TIME STEP    4, STRESS PERIOD    7
 
 SOLVING FOR HEAD 
    35 ITERATIONS FOR TIME STEP   5 IN STRESS PERIOD    7

 MAXIMUM HEAD CHANGE FOR EACH ITERATION:

    HEAD CHANGE   HEAD CHANGE   HEAD CHANGE   HEAD CHANGE   HEAD CHANGE
  LAYER,ROW,COL LAYER,ROW,COL LAYER,ROW,COL LAYER,ROW,COL LAYER,ROW,COL
 ----------------------------------------------------------------------
     0.7415         1.412         1.032        -1.417        -2.682    
  (  3,  1,  1) (  3,  1,  9) (  3,  1,  1) (  3,  1, 10) (  3,  1,  1)
     0.9043        0.5409        0.1594        0.7927E-01   -0.7465E-01
  (  3, 10,  1) (  3,  9,  3) (  2,  1,  7) (  2, 10,  1) (  3, 10,  1)
     0.8772E-01   -0.1544E-01   -0.1125E-01   -0.6755E-02   -0.4382E-02
  (  2,  6,  1) (  3,  3,  7) (  3,  3,  6) (  3,  9,  1) (  3,  9,  2)
    -0.2007E-02   -0.3058E-02   -0.2306E-02   -0.1266E-02   -0.8837E-03
  (  3, 10,  1) (  3,  9,  3) (  3,  9,  2) (  3,  3,  6) (  3,  3,  6)
    -0.4194E-03   -0.5762E-03   -0.4560E-03   -0.2780E-03   -0.1878E-03
  (  3,  3,  6) (  3,  3,  6) (  3,  3,  6) (  3,  3,  6) (  3,  3,  6)
    -0.9936E-04   -0.1244E-03   -0.1000E-03   -0.6076E-04   -0.4397E-04
  (  3,  3,  6) (  3,  3,  6) (  3,  3,  6) (  3,  3,  6) (  3,  3,  6)
    -0.2397E-04   -0.2470E-04   -0.2108E-04   -0.1346E-04   -0.7089E-05
  (  3,  3,  6) (  3,  3,  6) (  3,  3,  6) (  3,  3,  6) (  3,  3,  6)


 OUTPUT CONTROL FOR STRESS PERIOD    7   TIME STEP    5
    SAVE HEAD FOR ALL LAYERS

 HEAD WILL BE SAVED ON UNIT   21 AT END OF TIME STEP    5, STRESS PERIOD    7
 
 SOLVING FOR HEAD 
    34 ITERATIONS FOR TIME STEP   6 IN STRESS PERIOD    7

 MAXIMUM HEAD CHANGE FOR EACH ITERATION:

    HEAD CHANGE   HEAD CHANGE   HEAD CHANGE   HEAD CHANGE   HEAD CHANGE
  LAYER,ROW,COL LAYER,ROW,COL LAYER,ROW,COL LAYER,ROW,COL LAYER,ROW,COL
 ----------------------------------------------------------------------
     0.4719        0.8830        0.4288        -1.510        0.5324    
  (  3,  3,  7) (  3,  1, 10) (  3,  1,  1) (  3,  1, 10) (  3, 10,  1)
     0.7928E-01   -0.5385E-01   -0.4507E-01   -0.2338E-01   -0.1148E-01
  (  2,  3,  1) (  3,  3,  7) (  3,  3,  7) (  3,  3,  7) (  3,  3,  7)
    -0.1268E-01   -0.6717E-02   -0.5652E-02   -0.3169E-02   -0.2067E-02
  (  2,  7,  1) (  3,  3,  7) (  3,  3,  6) (  3,  3,  7) (  3,  3,  6)
    -0.9473E-03   -0.1353E-02   -0.1140E-02   -0.6650E-03   -0.4430E-03
  (  3,  3,  6) (  3,  3,  6) (  3,  3,  6) (  3,  3,  6) (  3,  3,  6)
    -0.2286E-03   -0.2872E-03   -0.2452E-03   -0.1474E-03   -0.1054E-03
  (  3,  3,  6) (  3,  3,  6) (  3,  3,  6) (  3,  3,  6) (  3,  3,  6)
    -0.5562E-04   -0.6522E-04   -0.5592E-04   -0.3830E-04   -0.2375E-04
  (  3,  3,  6) (  3,  3,  6) (  3,  3,  6) (  3,  3,  6) (  3,  3,  6)
    -0.1405E-04   -0.1262E-04   -0.1002E-04   -0.4778E-05
  (  3,  3,  6) (  3,  3,  6) (  3,  3,  6) (  3,  3,  6)


 OUTPUT CONTROL FOR STRESS PERIOD    7   TIME STEP    6
    PRINT BUDGET
    PRINT HEAD FOR ALL LAYERS
    SAVE HEAD FOR ALL LAYERS
    SAVE DRAWDOWN FOR ALL LAYERS
1
              HEAD IN LAYER   1 AT END OF TIME STEP   6 IN STRESS PERIOD    7
  ---------------------------------------------------------------------------

           1       2       3       4       5       6       7       8       9      10
 ...................................................................................
   1    21.97   21.63   20.97   20.55   20.35   20.35   20.55   20.96   21.62   21.97
   2    20.94   20.44   20.02   19.72   19.57   19.57   19.72   20.01   20.43   20.93
   3    19.44   18.95   18.58   18.34   18.21   18.21   18.33   18.57   18.94   19.43
   4    17.39   16.96   16.67   16.48   16.38   16.38   16.47   16.66   16.95   17.38
   5    14.49   14.40   14.30   14.22   14.18   14.17   14.22   14.30   14.40   14.48
   6    11.89   11.87   11.83   11.79   11.77   11.77   11.79   11.82   11.86   11.89
   7     9.36    9.33    9.30    9.26    9.24    9.24    9.26    9.29    9.33    9.35
   8     6.87    6.81    6.72    6.62    6.56    6.56    6.62    6.71    6.81    6.87
   9     4.56    4.39    4.09    3.75    3.61    3.61    3.75    4.09    4.39    4.56
  10     2.89    2.47    1.56    0.00    0.00    0.00    0.00    1.56    2.47    2.89
1
              HEAD IN LAYER   2 AT END OF TIME STEP   6 IN STRESS PERIOD    7
  ---------------------------------------------------------------------------

           1       2       3       4       5       6       7       8       9      10
 ...................................................................................
   1     1.93    1.95    1.97    1.97    1.96    1.95    1.93    1.90    1.86    1.81
   2     1.75    3.29    3.10    2.64    2.17    1.82    1.86    2.19    2.45    1.58
   3     1.51    2.60    2.21    1.43    0.30   -1.25   -0.84    0.48    1.34    1.30
   4     1.23    2.02    1.71    1.14    0.41   -0.42   -0.26    0.45    1.00    1.01
   5     0.91    1.44    1.32    1.06    0.79    0.58    0.57    0.70    0.83    0.70
   6     0.57    0.84    0.79    0.69    0.58    0.50    0.48    0.49    0.51    0.39
   7     0.22    0.13    0.07    0.01   -0.04   -0.07   -0.09   -0.08   -0.04    0.08
   8    -0.13   -0.70   -0.84   -0.91   -0.96   -0.97   -0.96   -0.91   -0.79   -0.24
   9    -0.46   -1.56   -1.85   -2.02   -2.10   -2.11   -2.05   -1.89   -1.61   -0.53
  10    -0.75   -0.82   -0.87   -0.91   -0.94   -0.94   -0.93   -0.89   -0.85   -0.79
1
              HEAD IN LAYER   3 AT END OF TIME STEP   6 IN STRESS PERIOD    7
  ---------------------------------------------------------------------------

           1       2       3       4       5       6       7       8       9      10
 ...................................................................................
   1   -12.84  -12.99  -13.28  -13.65  -14.05  -14.37  -14.50  -14.48  -14.39  -14.33
   2   -13.02  -13.26  -13.74  -14.43  -15.25  -15.98  -16.03  -15.62  -15.20  -14.97
   3   -13.05  -13.41  -14.20  -15.55  -17.72  -21.28  -20.40  -17.70  -16.23  -15.59
   4   -12.38  -12.68  -13.29  -14.27  -15.65  -17.48  -17.18  -15.83  -14.96  -14.53
   5   -11.24  -11.41  -11.72  -12.16  -12.66  -13.08  -13.15  -12.95  -12.73  -12.60
   6   -10.07  -10.15  -10.29  -10.47  -10.66  -10.82  -10.89  -10.89  -10.85  -10.83
   7    -9.10   -9.13   -9.19   -9.27   -9.36   -9.43   -9.47   -9.49   -9.50   -9.50
   8    -8.39   -8.41   -8.44   -8.48   -8.52   -8.55   -8.58   -8.59   -8.60   -8.61
   9    -7.95   -7.96   -7.97   -7.99   -8.01   -8.03   -8.05   -8.06   -8.06   -8.06
  10    -7.73   -7.73   -7.74   -7.76   -7.77   -7.78   -7.79   -7.80   -7.81   -7.81

 HEAD WILL BE SAVED ON UNIT   21 AT END OF TIME STEP    6, STRESS PERIOD    7

 DRAWDOWN WILL BE SAVED ON UNIT   22 AT END OF TIME STEP    6, STRESS PERIOD    7
1
  VOLUMETRIC BUDGET FOR ENTIRE MODEL AT END OF TIME STEP    6, STRESS PERIOD   7
  ------------------------------------------------------------------------------

     CUMULATIVE VOLUMES      L**3       RATES FOR THIS TIME STEP      L**3/T
     ------------------                 ------------------------

           IN:                                      IN:
           ---                                      ---
             STORAGE =    12026465.0000               STORAGE =        4848.2598
       CONSTANT HEAD =       14938.7920         CONSTANT HEAD =          22.2828
               WELLS =    65784000.0000                 WELLS =       30000.0000
    INST. IB STORAGE =    19069030.0000      INST. IB STORAGE =        6081.1187
    DELAY IB STORAGE =    31480730.0000      DELAY IB STORAGE =       16635.1035

            TOTAL IN =   128375160.0000              TOTAL IN =       57586.7656

          OUT:                                     OUT:
          ----                                     ----
             STORAGE =           0.0000               STORAGE =           0.0000
       CONSTANT HEAD =    62621168.0000         CONSTANT HEAD =       27586.8223
               WELLS =    65754000.0000                 WELLS =       30000.0000
    INST. IB STORAGE =           0.0000      INST. IB STORAGE =           0.0000
    DELAY IB STORAGE =           0.0000      DELAY IB STORAGE =           0.0000

           TOTAL OUT =   128375168.0000             TOTAL OUT =       57586.8203

            IN - OUT =          -8.0000              IN - OUT =      -5.4688E-02

 PERCENT DISCREPANCY =          -0.00     PERCENT DISCREPANCY =          -0.00






         TIME SUMMARY AT END OF TIME STEP    6 IN STRESS PERIOD    7
                    SECONDS     MINUTES      HOURS       DAYS        YEARS
                    -----------------------------------------------------------
   TIME STEP LENGTH 9.18681E+06 1.53113E+05  2551.9      106.33     0.29111    
 STRESS PERIOD TIME 3.15619E+07 5.26032E+05  8767.2      365.30      1.0001    
         TOTAL TIME 1.89458E+08 3.15763E+06  52627.      2192.8      6.0036    
1

                               VOLUMETRIC BUDGET FOR SYSTEMS OF DELAY INTERBEDS
                                          AT END OF TIME STEP  6 IN STRESS PERIOD  7

          |   C U M U L A T I V E   V O L U M E S   L**3           | R A T E S   F O R  T H I S  T I M E  S T E P   L**3/T  |
   SYSTEM |    CHANGE IN     BOUNDARY                    PERCENT   |    CHANGE IN     BOUNDARY                    PERCENT   |
   NUMBER |     STORAGE        FLOW           SUM      DISCREPANCY |     STORAGE        FLOW           SUM      DISCREPANCY |
  --------|--------------------------------------------------------|--------------------------------------------------------|
      1     28116.        -28116.         0.0000         0.0000         12.097        -12.097       -0.95367E-06   -0.78837E-05
      2    0.31453E+08   -0.31453E+08    -2.0000       -0.63588E-05     16623.        -16623.         0.0000         0.0000    
  --------|--------------------------------------------------------|--------------------------------------------------------|
 TOTALS:    0.31481E+08   -0.31481E+08    -2.0000       -0.63531E-05     16635.        -16635.         0.0000         0.0000    
1
                            STRESS PERIOD NO.    8, LENGTH =   365.3000    
                            -----------------------------------------------

                              NUMBER OF TIME STEPS =     6

                               MULTIPLIER FOR DELT =     1.300

                            INITIAL TIME STEP SIZE =   28.63744    

 REUSING NON-PARAMETER WELLS FROM LAST STRESS PERIOD

     14 WELLS
 
 SOLVING FOR HEAD 

    44 ITERATIONS FOR TIME STEP   1 IN STRESS PERIOD    8

 MAXIMUM HEAD CHANGE FOR EACH ITERATION:

    HEAD CHANGE   HEAD CHANGE   HEAD CHANGE   HEAD CHANGE   HEAD CHANGE
  LAYER,ROW,COL LAYER,ROW,COL LAYER,ROW,COL LAYER,ROW,COL LAYER,ROW,COL
 ----------------------------------------------------------------------
      2.153         4.544         3.365        -2.167        -3.347    
  (  3,  3, 10) (  3,  1,  7) (  3,  1,  1) (  3,  1,  9) (  3,  1,  1)
    -0.3382       -0.7788        -1.829        -1.051        0.8763    
  (  3,  1, 10) (  3,  2, 10) (  3,  1, 10) (  3,  1,  1) (  3,  1,  1)
    -0.7295E-01   -0.1184E-01   -0.7640E-02   -0.6272E-02   -0.4704E-02
  (  2,  8,  1) (  3,  3,  7) (  3,  3,  6) (  3,  3,  7) (  3,  3,  6)
    -0.2781E-02   -0.2276E-02   -0.1531E-02    0.1456E-02    0.1228E-02
  (  3,  3,  7) (  3,  3,  6) (  3,  3,  7) (  3,  2, 10) (  3,  1,  1)
     0.2372E-02    0.1797E-02    0.3107E-02    0.2446E-02    0.1644E-02
  (  3,  1, 10) (  3,  2,  7) (  3,  1,  4) (  3,  2,  2) (  3,  2,  7)
     0.1069E-02    0.1104E-02    0.7609E-03    0.5395E-03    0.3971E-03
  (  3,  1,  3) (  3,  2,  7) (  3,  2,  7) (  3,  2,  7) (  3,  2,  7)
     0.2591E-03    0.2697E-03    0.1865E-03    0.1296E-03    0.9837E-04
  (  3,  1,  1) (  3,  2,  7) (  3,  2,  7) (  3,  2,  7) (  3,  2,  7)
     0.6298E-04    0.6538E-04    0.4494E-04    0.3202E-04    0.2375E-04
  (  3,  1,  3) (  3,  2,  7) (  3,  2,  7) (  3,  2,  7) (  3,  2,  2)
     0.1511E-04    0.1601E-04    0.1107E-04    0.6570E-05
  (  3,  2,  7) (  3,  2,  7) (  3,  1,  7) (  3,  1,  3)


 OUTPUT CONTROL FOR STRESS PERIOD    8   TIME STEP    1
    SAVE HEAD FOR ALL LAYERS

 HEAD WILL BE SAVED ON UNIT   21 AT END OF TIME STEP    1, STRESS PERIOD    8
 
 SOLVING FOR HEAD 
    43 ITERATIONS FOR TIME STEP   2 IN STRESS PERIOD    8

 MAXIMUM HEAD CHANGE FOR EACH ITERATION:

    HEAD CHANGE   HEAD CHANGE   HEAD CHANGE   HEAD CHANGE   HEAD CHANGE
  LAYER,ROW,COL LAYER,ROW,COL LAYER,ROW,COL LAYER,ROW,COL LAYER,ROW,COL
 ----------------------------------------------------------------------
      1.573         4.079         3.222        -1.846        -3.484    
  (  3,  1,  8) (  3,  1, 10) (  3,  1,  1) (  3,  2, 10) (  3,  1,  1)
    -0.2698       -0.6439        -1.629        0.4115        0.4071E-01
  (  3,  1, 10) (  3,  1,  1) (  3,  1, 10) (  3, 10,  1) (  2, 10,  1)
    -0.7164E-01   -0.1145E-01   -0.7035E-02   -0.4665E-02   -0.2190E-02
  (  2,  8,  1) (  3,  3,  6) (  3,  3,  7) (  3,  3,  6) (  3,  3,  7)
    -0.2354E-02    0.1669E-02    0.1388E-02    0.2668E-02    0.2265E-02
  (  3,  3,  6) (  3,  7,  2) (  3,  9,  1) (  3,  1,  1) (  3,  1,  9)
     0.2483E-02    0.3837E-02    0.2902E-02    0.2021E-02    0.1509E-02
  (  3,  1,  1) (  3,  1, 10) (  3,  2,  9) (  3,  1, 10) (  3,  1,  9)
     0.9774E-03    0.9963E-03    0.6799E-03    0.4695E-03    0.3387E-03
  (  3,  1, 10) (  3,  2,  9) (  3,  1,  9) (  3,  1,  9) (  3,  1, 10)
     0.2117E-03    0.2295E-03    0.1570E-03    0.1062E-03    0.7989E-04
  (  3,  1,  9) (  3,  2,  9) (  3,  2,  9) (  3,  2, 10) (  3,  1,  9)
     0.5144E-04    0.5294E-04    0.3666E-04    0.2519E-04    0.1814E-04
  (  3,  1, 10) (  3,  2,  9) (  3,  3,  9) (  3,  1,  8) (  3,  3,  9)
     0.1155E-04    0.1120E-04    0.6568E-05
  (  3,  1,  8) (  3,  1, 10) (  3,  1, 10)


 OUTPUT CONTROL FOR STRESS PERIOD    8   TIME STEP    2
    SAVE HEAD FOR ALL LAYERS

 HEAD WILL BE SAVED ON UNIT   21 AT END OF TIME STEP    2, STRESS PERIOD    8
 
 SOLVING FOR HEAD 
    40 ITERATIONS FOR TIME STEP   3 IN STRESS PERIOD    8

 MAXIMUM HEAD CHANGE FOR EACH ITERATION:

    HEAD CHANGE   HEAD CHANGE   HEAD CHANGE   HEAD CHANGE   HEAD CHANGE
  LAYER,ROW,COL LAYER,ROW,COL LAYER,ROW,COL LAYER,ROW,COL LAYER,ROW,COL
 ----------------------------------------------------------------------
      1.141         2.889         2.425        -1.323        -3.362    
  (  3,  3,  7) (  3,  1,  9) (  3,  2,  1) (  3,  1, 10) (  3,  1,  1)
    -0.1949       -0.4771        -1.287        0.6139        0.1087    
  (  3,  1, 10) (  3,  1,  1) (  3,  1, 10) (  3,  1, 10) (  2, 10, 10)
    -0.6257E-01   -0.1362E-01   -0.5989E-02   -0.5778E-02    0.1476E-02
  (  2, 10, 10) (  2,  1,  2) (  3,  3,  7) (  3,  3,  6) (  3,  1,  1)
    -0.1843E-02    0.3228E-02    0.2568E-02    0.4493E-02    0.3179E-02
  (  3,  3,  6) (  3,  1,  1) (  3,  7,  2) (  3,  1, 10) (  3,  1, 10)
     0.1842E-02    0.2163E-02    0.1419E-02    0.9733E-03    0.6995E-03
  (  3,  1, 10) (  3,  1, 10) (  3,  2,  9) (  3,  1, 10) (  3,  1, 10)
     0.4393E-03    0.4520E-03    0.3258E-03    0.2106E-03    0.1539E-03
  (  3,  1, 10) (  3,  2,  9) (  3,  1, 10) (  3,  1, 10) (  3,  1, 10)
     0.8922E-04    0.1044E-03    0.6803E-04    0.4627E-04    0.3447E-04
  (  3,  1, 10) (  3,  1, 10) (  3,  2,  9) (  3,  1, 10) (  3,  1, 10)
     0.2107E-04    0.2171E-04    0.1637E-04    0.1002E-04    0.3713E-05
  (  3,  1, 10) (  3,  2,  9) (  3,  1, 10) (  3,  1, 10) (  3,  1, 10)


 OUTPUT CONTROL FOR STRESS PERIOD    8   TIME STEP    3
    SAVE HEAD FOR ALL LAYERS

 HEAD WILL BE SAVED ON UNIT   21 AT END OF TIME STEP    3, STRESS PERIOD    8
 
 SOLVING FOR HEAD 
    36 ITERATIONS FOR TIME STEP   4 IN STRESS PERIOD    8

 MAXIMUM HEAD CHANGE FOR EACH ITERATION:

    HEAD CHANGE   HEAD CHANGE   HEAD CHANGE   HEAD CHANGE   HEAD CHANGE
  LAYER,ROW,COL LAYER,ROW,COL LAYER,ROW,COL LAYER,ROW,COL LAYER,ROW,COL
 ----------------------------------------------------------------------
      1.058         2.415         1.801        -1.313        -3.232    
  (  3,  1,  1) (  3,  1, 10) (  3,  1,  1) (  3,  1, 10) (  3,  1,  1)
     0.4116        0.1762       -0.3477E-01   -0.2676E-01   -0.1937E-01
  (  3, 10, 10) (  3,  9,  3) (  3,  3,  7) (  3,  3,  6) (  3,  3,  7)
    -0.9785E-02   -0.1223E-01   -0.8271E-02   -0.2886E-02    0.1844E-02
  (  3,  3,  6) (  3,  3,  7) (  3,  3,  6) (  3,  3,  7) (  3,  7,  1)
     0.3310E-02    0.4409E-02    0.3170E-02    0.2040E-02    0.1436E-02
  (  3,  1,  1) (  3,  1,  1) (  3,  1, 10) (  3,  1, 10) (  3,  1,  1)
     0.8146E-03    0.9759E-03    0.6799E-03    0.4166E-03    0.3094E-03
  (  3,  1,  1) (  3,  1, 10) (  3,  1,  1) (  3,  1,  1) (  3,  1, 10)
     0.1759E-03    0.2008E-03    0.1390E-03    0.9161E-04    0.6458E-04
  (  3,  1, 10) (  3,  1,  1) (  3,  1, 10) (  3,  1, 10) (  3,  1,  1)
     0.3737E-04    0.4334E-04    0.3019E-04    0.1856E-04    0.1461E-04
  (  3,  1,  1) (  3,  1, 10) (  3,  1,  1) (  3,  1,  1) (  3,  1,  9)
     0.7684E-05
  (  3,  1,  1)


 OUTPUT CONTROL FOR STRESS PERIOD    8   TIME STEP    4
    SAVE HEAD FOR ALL LAYERS

 HEAD WILL BE SAVED ON UNIT   21 AT END OF TIME STEP    4, STRESS PERIOD    8
 
 SOLVING FOR HEAD 
    34 ITERATIONS FOR TIME STEP   5 IN STRESS PERIOD    8

 MAXIMUM HEAD CHANGE FOR EACH ITERATION:

    HEAD CHANGE   HEAD CHANGE   HEAD CHANGE   HEAD CHANGE   HEAD CHANGE
  LAYER,ROW,COL LAYER,ROW,COL LAYER,ROW,COL LAYER,ROW,COL LAYER,ROW,COL
 ----------------------------------------------------------------------
     0.7718         1.432         1.271        -1.392        -2.802    
  (  3,  1,  7) (  3,  2,  9) (  3,  1,  1) (  3,  1, 10) (  3,  1,  1)
     0.8403        0.5059        0.1483        0.6240E-01   -0.3609E-01
  (  3, 10,  1) (  3,  9,  3) (  2,  1,  8) (  2, 10,  1) (  2, 10, 10)
     0.8307E-01   -0.1499E-01   -0.9756E-02   -0.5241E-02   -0.3507E-02
  (  2,  7,  1) (  3,  3,  7) (  3,  9,  5) (  3,  9,  3) (  3,  9,  3)
    -0.3022E-02   -0.2434E-02   -0.1834E-02   -0.9834E-03   -0.6487E-03
  (  2,  6,  1) (  3,  9,  3) (  3,  9,  2) (  3,  9,  4) (  3,  3,  6)
    -0.3149E-03   -0.4496E-03   -0.3404E-03   -0.2061E-03   -0.1410E-03
  (  3,  3,  6) (  3,  9,  2) (  3,  9,  4) (  3,  3,  6) (  3,  3,  6)
    -0.7516E-04   -0.9296E-04   -0.7672E-04   -0.4620E-04   -0.3181E-04
  (  3,  3,  6) (  3,  3,  6) (  3,  3,  6) (  3,  3,  6) (  3,  3,  6)
    -0.1819E-04   -0.1910E-04   -0.1568E-04   -0.8619E-05
  (  3,  3,  6) (  3,  3,  6) (  3,  3,  6) (  3,  3,  6)


 OUTPUT CONTROL FOR STRESS PERIOD    8   TIME STEP    5
    SAVE HEAD FOR ALL LAYERS

 HEAD WILL BE SAVED ON UNIT   21 AT END OF TIME STEP    5, STRESS PERIOD    8
 
 SOLVING FOR HEAD 
    34 ITERATIONS FOR TIME STEP   6 IN STRESS PERIOD    8

 MAXIMUM HEAD CHANGE FOR EACH ITERATION:

    HEAD CHANGE   HEAD CHANGE   HEAD CHANGE   HEAD CHANGE   HEAD CHANGE
  LAYER,ROW,COL LAYER,ROW,COL LAYER,ROW,COL LAYER,ROW,COL LAYER,ROW,COL
 ----------------------------------------------------------------------
     0.4577        0.8358        0.4746        -1.394       -0.8529    
  (  3,  1,  8) (  3,  1, 10) (  3,  2,  1) (  3,  1, 10) (  3,  1,  1)
     0.3736        0.1896        0.4346E-01   -0.2388E-01   -0.1898E-01
  (  3,  1, 10) (  3,  2,  2) (  2,  1,  9) (  3,  3,  6) (  2,  1, 10)
     0.1279E-01   -0.1094E-01   -0.9169E-02   -0.4881E-02   -0.3103E-02
  (  2,  7,  1) (  3,  3,  6) (  3,  3,  6) (  3,  3,  6) (  3,  3,  6)
    -0.2276E-02   -0.2057E-02   -0.1732E-02   -0.9423E-03   -0.6171E-03
  (  2,  7,  1) (  3,  3,  6) (  3,  3,  6) (  3,  3,  6) (  3,  3,  6)
    -0.3477E-03   -0.4059E-03   -0.3397E-03   -0.1930E-03   -0.1303E-03
  (  2,  7,  1) (  3,  3,  6) (  3,  3,  6) (  3,  3,  6) (  3,  3,  6)
    -0.6199E-04   -0.8324E-04   -0.7075E-04   -0.4227E-04   -0.2850E-04
  (  3,  3,  6) (  3,  3,  6) (  3,  3,  6) (  3,  3,  6) (  3,  3,  6)
    -0.1511E-04   -0.1458E-04   -0.1130E-04   -0.6582E-05
  (  3,  3,  6) (  3,  3,  6) (  3,  3,  6) (  3,  3,  6)


 OUTPUT CONTROL FOR STRESS PERIOD    8   TIME STEP    6
    PRINT BUDGET
    PRINT HEAD FOR ALL LAYERS
    SAVE HEAD FOR ALL LAYERS
    SAVE DRAWDOWN FOR ALL LAYERS
1
              HEAD IN LAYER   1 AT END OF TIME STEP   6 IN STRESS PERIOD    8
  ---------------------------------------------------------------------------

           1       2       3       4       5       6       7       8       9      10
 ...................................................................................
   1    21.85   21.51   20.84   20.43   20.22   20.22   20.42   20.84   21.50   21.85
   2    20.82   20.32   19.90   19.60   19.45   19.45   19.60   19.89   20.31   20.81
   3    19.32   18.83   18.47   18.22   18.10   18.09   18.21   18.46   18.82   19.31
   4    17.28   16.85   16.55   16.36   16.27   16.27   16.36   16.55   16.84   17.27
   5    14.39   14.30   14.20   14.12   14.07   14.07   14.11   14.19   14.29   14.38
   6    11.80   11.77   11.73   11.70   11.68   11.68   11.70   11.73   11.77   11.80
   7     9.28    9.26    9.22    9.18    9.16    9.16    9.18    9.22    9.25    9.28
   8     6.81    6.75    6.66    6.56    6.51    6.51    6.56    6.65    6.75    6.80
   9     4.52    4.35    4.05    3.72    3.58    3.58    3.72    4.05    4.35    4.52
  10     2.86    2.45    1.55    0.00    0.00    0.00    0.00    1.55    2.45    2.86
1
              HEAD IN LAYER   2 AT END OF TIME STEP   6 IN STRESS PERIOD    8
  ---------------------------------------------------------------------------

           1       2       3       4       5       6       7       8       9      10
 ...................................................................................
   1     1.53    1.56    1.57    1.57    1.56    1.55    1.52    1.50    1.46    1.42
   2     1.36    2.84    2.64    2.17    1.70    1.34    1.38    1.71    1.98    1.19
   3     1.14    2.17    1.76    0.98   -0.16   -1.71   -1.31    0.02    0.88    0.92
   4     0.87    1.62    1.30    0.72   -0.02   -0.85   -0.69    0.02    0.58    0.64
   5     0.57    1.07    0.95    0.69    0.41    0.20    0.19    0.32    0.46    0.36
   6     0.24    0.52    0.47    0.36    0.26    0.18    0.15    0.17    0.18    0.06
   7    -0.09   -0.14   -0.20   -0.26   -0.31   -0.35   -0.36   -0.35   -0.33   -0.24
   8    -0.42   -0.93   -1.06   -1.13   -1.18   -1.20   -1.19   -1.14   -1.03   -0.53
   9    -0.74   -1.76   -2.04   -2.22   -2.30   -2.31   -2.25   -2.09   -1.82   -0.81
  10    -1.02   -1.08   -1.14   -1.18   -1.20   -1.20   -1.19   -1.16   -1.12   -1.06
1
              HEAD IN LAYER   3 AT END OF TIME STEP   6 IN STRESS PERIOD    8
  ---------------------------------------------------------------------------

           1       2       3       4       5       6       7       8       9      10
 ...................................................................................
   1   -13.65  -13.80  -14.10  -14.48  -14.89  -15.21  -15.35  -15.33  -15.24  -15.18
   2   -13.82  -14.06  -14.55  -15.24  -16.07  -16.82  -16.87  -16.46  -16.05  -15.81
   3   -13.81  -14.18  -14.98  -16.33  -18.52  -22.09  -21.22  -18.51  -17.04  -16.39
   4   -13.09  -13.39  -14.01  -14.99  -16.38  -18.22  -17.93  -16.58  -15.70  -15.27
   5   -11.87  -12.03  -12.35  -12.80  -13.30  -13.73  -13.80  -13.61  -13.39  -13.26
   6   -10.61  -10.69  -10.83  -11.02  -11.21  -11.37  -11.45  -11.45  -11.42  -11.39
   7    -9.56   -9.59   -9.66   -9.74   -9.82   -9.90   -9.94   -9.97   -9.98   -9.98
   8    -8.79   -8.80   -8.83   -8.87   -8.91   -8.95   -8.98   -8.99   -9.01   -9.01
   9    -8.29   -8.30   -8.32   -8.34   -8.36   -8.38   -8.39   -8.41   -8.41   -8.42
  10    -8.05   -8.05   -8.06   -8.08   -8.09   -8.10   -8.11   -8.12   -8.13   -8.13

 HEAD WILL BE SAVED ON UNIT   21 AT END OF TIME STEP    6, STRESS PERIOD    8

 DRAWDOWN WILL BE SAVED ON UNIT   22 AT END OF TIME STEP    6, STRESS PERIOD    8
1
  VOLUMETRIC BUDGET FOR ENTIRE MODEL AT END OF TIME STEP    6, STRESS PERIOD   8
  ------------------------------------------------------------------------------

     CUMULATIVE VOLUMES      L**3       RATES FOR THIS TIME STEP      L**3/T
     ------------------                 ------------------------

           IN:                                      IN:
           ---                                      ---
             STORAGE =    13770091.0000               STORAGE =        4724.8276
       CONSTANT HEAD =       24456.3711         CONSTANT HEAD =          28.5698
               WELLS =    76743008.0000                 WELLS =       30000.0000
    INST. IB STORAGE =    21240386.0000      INST. IB STORAGE =        5867.6816
    DELAY IB STORAGE =    37575044.0000      DELAY IB STORAGE =       16699.2344

            TOTAL IN =   149352992.0000              TOTAL IN =       57320.3125

          OUT:                                     OUT:
          ----                                     ----
             STORAGE =           0.0000               STORAGE =           0.0000
       CONSTANT HEAD =    72639992.0000         CONSTANT HEAD =       27320.3906
               WELLS =    76713008.0000                 WELLS =       30000.0000
    INST. IB STORAGE =           0.0000      INST. IB STORAGE =           0.0000
    DELAY IB STORAGE =           0.0000      DELAY IB STORAGE =           0.0000

           TOTAL OUT =   149352992.0000             TOTAL OUT =       57320.3906

            IN - OUT =           0.0000              IN - OUT =      -7.8125E-02

 PERCENT DISCREPANCY =           0.00     PERCENT DISCREPANCY =          -0.00






         TIME SUMMARY AT END OF TIME STEP    6 IN STRESS PERIOD    8
                    SECONDS     MINUTES      HOURS       DAYS        YEARS
                    -----------------------------------------------------------
   TIME STEP LENGTH 9.18681E+06 1.53113E+05  2551.9      106.33     0.29111    
 STRESS PERIOD TIME 3.15619E+07 5.26032E+05  8767.2      365.30      1.0001    
         TOTAL TIME 2.21020E+08 3.68366E+06  61394.      2558.1      7.0037    
1

                               VOLUMETRIC BUDGET FOR SYSTEMS OF DELAY INTERBEDS
                                          AT END OF TIME STEP  6 IN STRESS PERIOD  8

          |   C U M U L A T I V E   V O L U M E S   L**3           | R A T E S   F O R  T H I S  T I M E  S T E P   L**3/T  |
   SYSTEM |    CHANGE IN     BOUNDARY                    PERCENT   |    CHANGE IN     BOUNDARY                    PERCENT   |
   NUMBER |     STORAGE        FLOW           SUM      DISCREPANCY |     STORAGE        FLOW           SUM      DISCREPANCY |
  --------|--------------------------------------------------------|--------------------------------------------------------|
      1     32757.        -32757.        0.39062E-02    0.11925E-04     12.089        -12.089        0.19073E-05    0.15777E-04
      2    0.37542E+08   -0.37542E+08     0.0000         0.0000         16687.        -16687.        0.19531E-02    0.11704E-04
  --------|--------------------------------------------------------|--------------------------------------------------------|
 TOTALS:    0.37575E+08   -0.37575E+08     0.0000         0.0000         16699.        -16699.        0.19531E-02    0.11696E-04
1
                            STRESS PERIOD NO.    9, LENGTH =   365.3000    
                            -----------------------------------------------

                              NUMBER OF TIME STEPS =     6

                               MULTIPLIER FOR DELT =     1.300

                            INITIAL TIME STEP SIZE =   28.63744    

 REUSING NON-PARAMETER WELLS FROM LAST STRESS PERIOD

     14 WELLS
 
 SOLVING FOR HEAD 

    44 ITERATIONS FOR TIME STEP   1 IN STRESS PERIOD    9

 MAXIMUM HEAD CHANGE FOR EACH ITERATION:

    HEAD CHANGE   HEAD CHANGE   HEAD CHANGE   HEAD CHANGE   HEAD CHANGE
  LAYER,ROW,COL LAYER,ROW,COL LAYER,ROW,COL LAYER,ROW,COL LAYER,ROW,COL
 ----------------------------------------------------------------------
      1.718         4.876         3.572        -2.091        -3.355    
  (  3,  1,  8) (  3,  1, 10) (  3,  1,  1) (  3,  2, 10) (  3,  1,  1)
    -0.3366       -0.8135        -1.853        -1.080        0.8179    
  (  3,  1, 10) (  3,  1,  1) (  3,  1, 10) (  3,  1,  1) (  3,  1,  1)
    -0.7690E-01   -0.1129E-01   -0.7558E-02   -0.5902E-02   -0.3251E-02
  (  2,  8,  1) (  3,  3,  7) (  3,  3,  6) (  3,  3,  6) (  3,  3,  7)
    -0.2547E-02   -0.1326E-02   -0.1419E-02    0.2468E-02    0.8386E-03
  (  3,  3,  6) (  3,  3,  6) (  3,  3,  6) (  3,  1,  1) (  3,  8,  6)
     0.2234E-02    0.1448E-02    0.1945E-02    0.2230E-02    0.1749E-02
  (  3,  1,  1) (  3,  2,  7) (  3,  1,  1) (  3,  2, 10) (  3,  2,  7)
     0.1165E-02    0.1180E-02    0.8253E-03    0.5780E-03    0.4336E-03
  (  3,  1, 10) (  3,  2,  7) (  3,  2,  7) (  3,  2,  7) (  3,  2,  7)
     0.2666E-03    0.2918E-03    0.1998E-03    0.1424E-03    0.1059E-03
  (  3,  2, 10) (  3,  2,  7) (  3,  2,  7) (  3,  2,  7) (  3,  2,  7)
     0.6715E-04    0.7034E-04    0.4990E-04    0.3486E-04    0.2638E-04
  (  3,  2,  7) (  3,  2,  7) (  3,  2,  7) (  3,  2,  7) (  3,  2,  7)
     0.1632E-04    0.1733E-04    0.1209E-04    0.7109E-05
  (  3,  2,  7) (  3,  2,  7) (  3,  2,  7) (  3,  2,  7)


 OUTPUT CONTROL FOR STRESS PERIOD    9   TIME STEP    1
    SAVE HEAD FOR ALL LAYERS

 HEAD WILL BE SAVED ON UNIT   21 AT END OF TIME STEP    1, STRESS PERIOD    9
 
 SOLVING FOR HEAD 
    42 ITERATIONS FOR TIME STEP   2 IN STRESS PERIOD    9

 MAXIMUM HEAD CHANGE FOR EACH ITERATION:

    HEAD CHANGE   HEAD CHANGE   HEAD CHANGE   HEAD CHANGE   HEAD CHANGE
  LAYER,ROW,COL LAYER,ROW,COL LAYER,ROW,COL LAYER,ROW,COL LAYER,ROW,COL
 ----------------------------------------------------------------------
      1.987         3.437         3.154        -1.621        -3.512    
  (  3,  1, 10) (  3,  1,  6) (  3,  1,  1) (  3,  2, 10) (  3,  1,  1)
    -0.2744       -0.6519        -1.628        0.3679        0.3850E-01
  (  3,  1, 10) (  3,  1,  1) (  3,  1, 10) (  3, 10,  1) (  2, 10,  1)
    -0.7332E-01   -0.9218E-02   -0.7325E-02   -0.3849E-02   -0.2909E-02
  (  2,  8,  1) (  3,  3,  7) (  3,  3,  7) (  3,  3,  7) (  3,  3,  7)
     0.2389E-02    0.1622E-02    0.1534E-02    0.1974E-02    0.3861E-02
  (  3,  1,  1) (  3, 10,  4) (  3,  3,  3) (  3,  7,  1) (  3,  1, 10)
     0.1936E-02    0.4195E-02    0.2980E-02    0.2060E-02    0.1497E-02
  (  3,  1,  1) (  3,  1,  7) (  3,  1,  1) (  3,  1,  3) (  3,  1,  3)
     0.9344E-03    0.1002E-02    0.6901E-03    0.4682E-03    0.3496E-03
  (  3,  1,  3) (  3,  1,  1) (  3,  1,  4) (  3,  1,  3) (  3,  1,  3)
     0.2202E-03    0.2322E-03    0.1584E-03    0.1095E-03    0.7945E-04
  (  3,  1,  1) (  3,  2,  2) (  3,  1,  1) (  3,  1,  3) (  3,  1,  3)
     0.4983E-04    0.5248E-04    0.3709E-04    0.2506E-04    0.1869E-04
  (  3,  1,  3) (  3,  1,  1) (  3,  1,  4) (  3,  1,  4) (  3,  1,  3)
     0.1158E-04    0.9901E-05
  (  3,  1,  1) (  3,  1,  3)


 OUTPUT CONTROL FOR STRESS PERIOD    9   TIME STEP    2
    SAVE HEAD FOR ALL LAYERS

 HEAD WILL BE SAVED ON UNIT   21 AT END OF TIME STEP    2, STRESS PERIOD    9
 
 SOLVING FOR HEAD 
    40 ITERATIONS FOR TIME STEP   3 IN STRESS PERIOD    9

 MAXIMUM HEAD CHANGE FOR EACH ITERATION:

    HEAD CHANGE   HEAD CHANGE   HEAD CHANGE   HEAD CHANGE   HEAD CHANGE
  LAYER,ROW,COL LAYER,ROW,COL LAYER,ROW,COL LAYER,ROW,COL LAYER,ROW,COL
 ----------------------------------------------------------------------
      1.164         2.888         2.376        -1.234        -3.538    
  (  3,  1,  1) (  3,  1,  9) (  3,  2,  4) (  3,  1, 10) (  3,  1,  1)
    -0.2008       -0.4479        -1.234        0.5798        0.1096    
  (  3,  1, 10) (  3,  2, 10) (  3,  1, 10) (  3,  1, 10) (  2, 10, 10)
    -0.6083E-01   -0.1577E-01   -0.6562E-02   -0.4961E-02   -0.1203E-02
  (  2, 10, 10) (  2,  1,  2) (  3,  3,  6) (  3,  3,  6) (  3,  3,  6)
     0.1451E-02    0.2453E-02    0.2381E-02    0.3882E-02    0.3500E-02
  (  3, 10,  1) (  3,  1,  1) (  3, 10, 10) (  3,  1,  1) (  3,  1,  3)
     0.2032E-02    0.2371E-02    0.1636E-02    0.1097E-02    0.7738E-03
  (  3,  1,  1) (  3,  1, 10) (  3,  1,  3) (  3,  1,  3) (  3,  1,  3)
     0.4794E-03    0.5082E-03    0.3655E-03    0.2363E-03    0.1781E-03
  (  3,  1, 10) (  3,  1,  3) (  3,  1,  3) (  3,  1,  3) (  3,  1,  3)
     0.1016E-03    0.1153E-03    0.7926E-04    0.5519E-04    0.3791E-04
  (  3,  1,  3) (  3,  1,  3) (  3,  1,  3) (  3,  1,  3) (  3,  1,  3)
     0.2408E-04    0.2523E-04    0.1843E-04    0.1164E-04    0.5151E-05
  (  3,  1,  3) (  3,  1,  3) (  3,  1,  3) (  3,  1,  3) (  3,  1,  3)


 OUTPUT CONTROL FOR STRESS PERIOD    9   TIME STEP    3
    SAVE HEAD FOR ALL LAYERS

 HEAD WILL BE SAVED ON UNIT   21 AT END OF TIME STEP    3, STRESS PERIOD    9
 
 SOLVING FOR HEAD 
    36 ITERATIONS FOR TIME STEP   4 IN STRESS PERIOD    9

 MAXIMUM HEAD CHANGE FOR EACH ITERATION:

    HEAD CHANGE   HEAD CHANGE   HEAD CHANGE   HEAD CHANGE   HEAD CHANGE
  LAYER,ROW,COL LAYER,ROW,COL LAYER,ROW,COL LAYER,ROW,COL LAYER,ROW,COL
 ----------------------------------------------------------------------
     0.9285         2.259         2.023        -1.255        -3.234    
  (  3,  1,  8) (  3,  1, 10) (  3,  1,  1) (  3,  2, 10) (  3,  1,  1)
     0.3595        0.1506       -0.2546E-01   -0.2427E-01   -0.1944E-01
  (  3, 10, 10) (  3,  9,  3) (  3,  4,  6) (  3,  3,  6) (  3,  3,  7)
    -0.7622E-02   -0.1176E-01   -0.5805E-02   -0.3840E-02    0.1880E-02
  (  3,  3,  7) (  3,  3,  7) (  3,  3,  6) (  3,  3,  7) (  3,  8,  4)
     0.1879E-02    0.3973E-02    0.3381E-02    0.2215E-02    0.1579E-02
  (  3,  1,  1) (  3,  1,  1) (  3,  1, 10) (  3,  1,  9) (  3,  1, 10)
     0.8542E-03    0.1077E-02    0.7093E-03    0.4664E-03    0.3305E-03
  (  3,  1, 10) (  3,  1, 10) (  3,  1,  8) (  3,  1, 10) (  3,  1, 10)
     0.1936E-03    0.2049E-03    0.1558E-03    0.9642E-04    0.6877E-04
  (  3,  1, 10) (  3,  1,  8) (  3,  1, 10) (  3,  1, 10) (  3,  1, 10)
     0.3816E-04    0.4591E-04    0.3117E-04    0.2057E-04    0.1447E-04
  (  3,  1, 10) (  3,  1, 10) (  3,  1,  8) (  3,  1, 10) (  3,  1,  9)
     0.7901E-05
  (  3,  1, 10)


 OUTPUT CONTROL FOR STRESS PERIOD    9   TIME STEP    4
    SAVE HEAD FOR ALL LAYERS

 HEAD WILL BE SAVED ON UNIT   21 AT END OF TIME STEP    4, STRESS PERIOD    9
 
 SOLVING FOR HEAD 
    34 ITERATIONS FOR TIME STEP   5 IN STRESS PERIOD    9

 MAXIMUM HEAD CHANGE FOR EACH ITERATION:

    HEAD CHANGE   HEAD CHANGE   HEAD CHANGE   HEAD CHANGE   HEAD CHANGE
  LAYER,ROW,COL LAYER,ROW,COL LAYER,ROW,COL LAYER,ROW,COL LAYER,ROW,COL
 ----------------------------------------------------------------------
     0.6803         1.568         1.237        -1.329        -2.849    
  (  3,  3, 10) (  3,  1, 10) (  3,  1,  1) (  3,  2, 10) (  3,  1,  1)
     0.8436        0.5077        0.1422        0.6968E-01   -0.4528E-01
  (  3, 10,  1) (  3,  9,  3) (  2,  1,  8) (  2, 10,  1) (  2, 10, 10)
     0.7914E-01   -0.1394E-01   -0.8917E-02   -0.4783E-02   -0.3252E-02
  (  2,  6,  1) (  3,  3,  7) (  3,  9,  4) (  3,  9,  1) (  3, 10,  4)
    -0.2893E-02   -0.2209E-02   -0.1668E-02   -0.9024E-03   -0.5931E-03
  (  2,  5,  1) (  3,  9,  3) (  3,  9,  1) (  3, 10,  5) (  3,  9,  1)
    -0.2815E-03   -0.4072E-03   -0.3053E-03   -0.1697E-03   -0.1176E-03
  (  3, 10, 10) (  3,  9,  2) (  3,  9,  4) (  3,  3,  6) (  3,  3,  6)
    -0.6144E-04   -0.7683E-04   -0.6325E-04   -0.3842E-04   -0.2582E-04
  (  3,  3,  6) (  3,  9,  3) (  3,  3,  6) (  3,  3,  6) (  3,  3,  6)
    -0.1509E-04   -0.1517E-04   -0.1132E-04   -0.6072E-05
  (  3,  3,  6) (  3,  3,  6) (  3,  3,  6) (  3,  3,  6)


 OUTPUT CONTROL FOR STRESS PERIOD    9   TIME STEP    5
    SAVE HEAD FOR ALL LAYERS

 HEAD WILL BE SAVED ON UNIT   21 AT END OF TIME STEP    5, STRESS PERIOD    9
 
 SOLVING FOR HEAD 
    33 ITERATIONS FOR TIME STEP   6 IN STRESS PERIOD    9

 MAXIMUM HEAD CHANGE FOR EACH ITERATION:

    HEAD CHANGE   HEAD CHANGE   HEAD CHANGE   HEAD CHANGE   HEAD CHANGE
  LAYER,ROW,COL LAYER,ROW,COL LAYER,ROW,COL LAYER,ROW,COL LAYER,ROW,COL
 ----------------------------------------------------------------------
     0.4313        0.8728        0.4902        -1.317        -1.116    
  (  3,  3,  7) (  3,  1, 10) (  3,  2,  1) (  3,  1, 10) (  3,  1,  1)
     0.4598        0.2654        0.6661E-01   -0.2459E-01   -0.2320E-01
  (  3,  1, 10) (  3,  2,  2) (  2,  1,  9) (  3,  2,  3) (  2,  1, 10)
     0.2078E-01   -0.1213E-01   -0.1016E-01   -0.5336E-02   -0.3345E-02
  (  2,  7,  1) (  3,  3,  6) (  3,  3,  6) (  3,  3,  6) (  3,  3,  6)
    -0.2652E-02   -0.2227E-02   -0.1880E-02   -0.9975E-03   -0.6480E-03
  (  2,  7,  1) (  3,  3,  6) (  3,  3,  6) (  3,  3,  6) (  3,  3,  6)
    -0.3995E-03   -0.4267E-03   -0.3561E-03   -0.1991E-03   -0.1308E-03
  (  2,  8,  1) (  3,  3,  6) (  3,  3,  6) (  3,  3,  6) (  3,  3,  6)
    -0.5902E-04   -0.8462E-04   -0.7272E-04   -0.4135E-04   -0.2700E-04
  (  3,  3,  6) (  3,  3,  6) (  3,  3,  6) (  3,  3,  6) (  3,  3,  6)
    -0.1437E-04   -0.1320E-04   -0.9541E-05
  (  3,  3,  6) (  3,  3,  6) (  3,  3,  6)


 OUTPUT CONTROL FOR STRESS PERIOD    9   TIME STEP    6
    PRINT BUDGET
    PRINT HEAD FOR ALL LAYERS
    SAVE HEAD FOR ALL LAYERS
    SAVE DRAWDOWN FOR ALL LAYERS
1
              HEAD IN LAYER   1 AT END OF TIME STEP   6 IN STRESS PERIOD    9
  ---------------------------------------------------------------------------

           1       2       3       4       5       6       7       8       9      10
 ...................................................................................
   1    21.73   21.39   20.72   20.31   20.10   20.10   20.30   20.72   21.38   21.73
   2    20.70   20.20   19.78   19.48   19.33   19.33   19.48   19.77   20.19   20.69
   3    19.21   18.72   18.35   18.11   17.98   17.98   18.10   18.34   18.71   19.20
   4    17.17   16.74   16.45   16.26   16.16   16.16   16.25   16.44   16.73   17.17
   5    14.29   14.20   14.10   14.02   13.97   13.97   14.01   14.09   14.19   14.28
   6    11.71   11.69   11.65   11.61   11.59   11.59   11.61   11.64   11.68   11.71
   7     9.20    9.18    9.14    9.11    9.09    9.08    9.11    9.14    9.18    9.20
   8     6.75    6.69    6.60    6.50    6.45    6.45    6.50    6.60    6.69    6.75
   9     4.48    4.31    4.02    3.68    3.54    3.54    3.68    4.02    4.31    4.47
  10     2.84    2.42    1.53    0.00    0.00    0.00    0.00    1.53    2.42    2.83
1
              HEAD IN LAYER   2 AT END OF TIME STEP   6 IN STRESS PERIOD    9
  ---------------------------------------------------------------------------

           1       2       3       4       5       6       7       8       9      10
 ...................................................................................
   1     1.15    1.17    1.19    1.18    1.18    1.16    1.14    1.11    1.08    1.03
   2     0.99    2.41    2.20    1.73    1.25    0.89    0.93    1.26    1.53    0.81
   3     0.78    1.75    1.34    0.55   -0.60   -2.15   -1.75   -0.43    0.45    0.56
   4     0.52    1.23    0.90    0.32   -0.42   -1.26   -1.10   -0.39    0.18    0.29
   5     0.23    0.72    0.59    0.33    0.05   -0.16   -0.18   -0.05    0.09    0.02
   6    -0.07    0.21    0.16    0.05   -0.06   -0.14   -0.17   -0.15   -0.14   -0.26
   7    -0.39   -0.41   -0.47   -0.53   -0.58   -0.62   -0.63   -0.63   -0.60   -0.54
   8    -0.71   -1.17   -1.29   -1.36   -1.41   -1.43   -1.42   -1.38   -1.27   -0.82
   9    -1.01   -1.97   -2.25   -2.42   -2.50   -2.51   -2.45   -2.29   -2.03   -1.09
  10    -1.29   -1.35   -1.40   -1.44   -1.46   -1.46   -1.45   -1.42   -1.38   -1.33
1
              HEAD IN LAYER   3 AT END OF TIME STEP   6 IN STRESS PERIOD    9
  ---------------------------------------------------------------------------

           1       2       3       4       5       6       7       8       9      10
 ...................................................................................
   1   -14.42  -14.58  -14.88  -15.27  -15.68  -16.01  -16.15  -16.13  -16.05  -15.99
   2   -14.58  -14.82  -15.31  -16.02  -16.86  -17.60  -17.66  -17.25  -16.84  -16.61
   3   -14.54  -14.91  -15.71  -17.08  -19.27  -22.85  -21.98  -19.28  -17.81  -17.16
   4   -13.76  -14.06  -14.69  -15.68  -17.08  -18.92  -18.64  -17.29  -16.41  -15.98
   5   -12.48  -12.64  -12.96  -13.41  -13.92  -14.36  -14.43  -14.24  -14.02  -13.89
   6   -11.14  -11.22  -11.37  -11.56  -11.76  -11.92  -11.99  -12.00  -11.96  -11.94
   7   -10.02  -10.05  -10.12  -10.20  -10.29  -10.36  -10.41  -10.44  -10.45  -10.45
   8    -9.19   -9.20   -9.23   -9.27   -9.31   -9.35   -9.38   -9.40   -9.41   -9.42
   9    -8.65   -8.66   -8.67   -8.70   -8.72   -8.74   -8.76   -8.77   -8.78   -8.78
  10    -8.38   -8.39   -8.40   -8.41   -8.43   -8.44   -8.45   -8.46   -8.47   -8.47

 HEAD WILL BE SAVED ON UNIT   21 AT END OF TIME STEP    6, STRESS PERIOD    9

 DRAWDOWN WILL BE SAVED ON UNIT   22 AT END OF TIME STEP    6, STRESS PERIOD    9
1
  VOLUMETRIC BUDGET FOR ENTIRE MODEL AT END OF TIME STEP    6, STRESS PERIOD   9
  ------------------------------------------------------------------------------

     CUMULATIVE VOLUMES      L**3       RATES FOR THIS TIME STEP      L**3/T
     ------------------                 ------------------------

           IN:                                      IN:
           ---                                      ---
             STORAGE =    15470259.0000               STORAGE =        4608.1104
       CONSTANT HEAD =       36261.6250         CONSTANT HEAD =          34.8199
               WELLS =    87702016.0000                 WELLS =       30000.0000
    INST. IB STORAGE =    23351994.0000      INST. IB STORAGE =        5728.4072
    DELAY IB STORAGE =    43675208.0000      DELAY IB STORAGE =       16692.5039

            TOTAL IN =   170235728.0000              TOTAL IN =       57063.8398

          OUT:                                     OUT:
          ----                                     ----
             STORAGE =           0.0000               STORAGE =           0.0000
       CONSTANT HEAD =    82563728.0000         CONSTANT HEAD =       27063.9102
               WELLS =    87672016.0000                 WELLS =       30000.0000
    INST. IB STORAGE =           0.0000      INST. IB STORAGE =           0.0000
    DELAY IB STORAGE =           0.0000      DELAY IB STORAGE =           0.0000

           TOTAL OUT =   170235744.0000             TOTAL OUT =       57063.9102

            IN - OUT =         -16.0000              IN - OUT =      -7.0312E-02

 PERCENT DISCREPANCY =          -0.00     PERCENT DISCREPANCY =          -0.00






         TIME SUMMARY AT END OF TIME STEP    6 IN STRESS PERIOD    9
                    SECONDS     MINUTES      HOURS       DAYS        YEARS
                    -----------------------------------------------------------
   TIME STEP LENGTH 9.18681E+06 1.53113E+05  2551.9      106.33     0.29111    
 STRESS PERIOD TIME 3.15619E+07 5.26032E+05  8767.2      365.30      1.0001    
         TOTAL TIME 2.52582E+08 4.20970E+06  70162.      2923.4      8.0038    
1

                               VOLUMETRIC BUDGET FOR SYSTEMS OF DELAY INTERBEDS
                                          AT END OF TIME STEP  6 IN STRESS PERIOD  9

          |   C U M U L A T I V E   V O L U M E S   L**3           | R A T E S   F O R  T H I S  T I M E  S T E P   L**3/T  |
   SYSTEM |    CHANGE IN     BOUNDARY                    PERCENT   |    CHANGE IN     BOUNDARY                    PERCENT   |
   NUMBER |     STORAGE        FLOW           SUM      DISCREPANCY |     STORAGE        FLOW           SUM      DISCREPANCY |
  --------|--------------------------------------------------------|--------------------------------------------------------|
      1     37287.        -37287.        0.39062E-02    0.10476E-04     12.093        -12.093        0.28610E-05    0.23659E-04
      2    0.43638E+08   -0.43638E+08     0.0000         0.0000         16680.        -16680.       -0.39062E-02   -0.23418E-04
  --------|--------------------------------------------------------|--------------------------------------------------------|
 TOTALS:    0.43675E+08   -0.43675E+08     0.0000         0.0000         16692.        -16693.       -0.39062E-02   -0.23401E-04
1
                            STRESS PERIOD NO.   10, LENGTH =   365.3000    
                            -----------------------------------------------

                              NUMBER OF TIME STEPS =     6

                               MULTIPLIER FOR DELT =     1.300

                            INITIAL TIME STEP SIZE =   28.63744    

 REUSING NON-PARAMETER WELLS FROM LAST STRESS PERIOD

     14 WELLS
 
 SOLVING FOR HEAD 

    44 ITERATIONS FOR TIME STEP   1 IN STRESS PERIOD   10

 MAXIMUM HEAD CHANGE FOR EACH ITERATION:

    HEAD CHANGE   HEAD CHANGE   HEAD CHANGE   HEAD CHANGE   HEAD CHANGE
  LAYER,ROW,COL LAYER,ROW,COL LAYER,ROW,COL LAYER,ROW,COL LAYER,ROW,COL
 ----------------------------------------------------------------------
      2.314         4.097         3.342        -1.754        -3.297    
  (  3,  1, 10) (  3,  1,  6) (  3,  1,  1) (  3,  2, 10) (  3,  1,  1)
    -0.3364       -0.8132        -1.842        -1.159        0.8277    
  (  3,  1, 10) (  3,  1,  1) (  3,  1, 10) (  3,  2,  1) (  3,  1,  1)
    -0.8761E-01   -0.1020E-01   -0.5644E-02   -0.6110E-02   -0.2566E-02
  (  2,  7,  1) (  3,  3,  6) (  3,  3,  8) (  3,  3,  6) (  3,  3,  7)
    -0.2898E-02    0.1260E-02   -0.1678E-02    0.1808E-02    0.8290E-03
  (  3,  3,  6) (  3,  9,  5) (  3,  3,  6) (  3,  1,  1) (  3, 10,  5)
     0.1850E-02    0.1458E-02    0.1544E-02    0.2830E-02    0.1777E-02
  (  3,  1,  1) (  3,  1,  5) (  3,  8, 10) (  3,  1, 10) (  3,  1,  5)
     0.1220E-02    0.1137E-02    0.8354E-03    0.5807E-03    0.4491E-03
  (  3,  1,  5) (  3,  2,  9) (  3,  1,  5) (  3,  1,  9) (  3,  1,  5)
     0.2881E-03    0.2832E-03    0.1956E-03    0.1473E-03    0.1060E-03
  (  3,  1,  5) (  3,  1,  5) (  3,  1,  5) (  3,  1,  5) (  3,  1,  9)
     0.7430E-04    0.6767E-04    0.5014E-04    0.3464E-04    0.2765E-04
  (  3,  1,  5) (  3,  1,  5) (  3,  1,  5) (  3,  1,  9) (  3,  1,  5)
     0.1696E-04    0.1707E-04    0.1180E-04    0.7807E-05
  (  3,  1,  5) (  3,  1,  5) (  3,  1,  5) (  3,  1,  8)


 OUTPUT CONTROL FOR STRESS PERIOD   10   TIME STEP    1
    SAVE HEAD FOR ALL LAYERS

 HEAD WILL BE SAVED ON UNIT   21 AT END OF TIME STEP    1, STRESS PERIOD   10
 
 SOLVING FOR HEAD 
    42 ITERATIONS FOR TIME STEP   2 IN STRESS PERIOD   10

 MAXIMUM HEAD CHANGE FOR EACH ITERATION:

    HEAD CHANGE   HEAD CHANGE   HEAD CHANGE   HEAD CHANGE   HEAD CHANGE
  LAYER,ROW,COL LAYER,ROW,COL LAYER,ROW,COL LAYER,ROW,COL LAYER,ROW,COL
 ----------------------------------------------------------------------
      1.570         4.216         2.932        -1.670        -3.422    
  (  3,  1,  6) (  3,  1, 10) (  3,  2,  3) (  3,  1,  5) (  3,  1,  1)
    -0.2566       -0.6256        -1.581        0.3415        0.3654E-01
  (  3,  1, 10) (  3,  1,  1) (  3,  1, 10) (  3, 10,  1) (  2, 10,  1)
    -0.7099E-01   -0.8474E-02   -0.6702E-02   -0.2285E-02   -0.2953E-02
  (  2,  8,  1) (  3,  3,  7) (  3,  3,  7) (  3,  3,  7) (  3,  3,  6)
     0.1746E-02    0.1379E-02    0.3555E-02    0.1883E-02    0.3313E-02
  (  3,  1, 10) (  3, 10, 10) (  3,  1, 10) (  3, 10, 10) (  3,  1,  7)
     0.1517E-02    0.3656E-02    0.2633E-02    0.1829E-02    0.1331E-02
  (  3,  9, 10) (  3,  2,  1) (  3,  2,  3) (  3,  1, 10) (  3,  1, 10)
     0.8833E-03    0.8950E-03    0.6146E-03    0.4120E-03    0.3070E-03
  (  3,  1, 10) (  3,  2,  3) (  3,  1, 10) (  3,  1, 10) (  3,  1, 10)
     0.1887E-03    0.2066E-03    0.1408E-03    0.9631E-04    0.7007E-04
  (  3,  1,  1) (  3,  2,  3) (  3,  2,  3) (  3,  1, 10) (  3,  1, 10)
     0.4700E-04    0.4674E-04    0.3243E-04    0.2201E-04    0.1620E-04
  (  3,  1, 10) (  3,  2,  3) (  3,  1, 10) (  3,  2,  1) (  3,  1,  9)
     0.1009E-04    0.6061E-05
  (  3,  1,  1) (  3,  1, 10)


 OUTPUT CONTROL FOR STRESS PERIOD   10   TIME STEP    2
    SAVE HEAD FOR ALL LAYERS

 HEAD WILL BE SAVED ON UNIT   21 AT END OF TIME STEP    2, STRESS PERIOD   10
 
 SOLVING FOR HEAD 
    40 ITERATIONS FOR TIME STEP   3 IN STRESS PERIOD   10

 MAXIMUM HEAD CHANGE FOR EACH ITERATION:

    HEAD CHANGE   HEAD CHANGE   HEAD CHANGE   HEAD CHANGE   HEAD CHANGE
  LAYER,ROW,COL LAYER,ROW,COL LAYER,ROW,COL LAYER,ROW,COL LAYER,ROW,COL
 ----------------------------------------------------------------------
      1.533         2.843         2.110        -1.173        -3.289    
  (  3,  1,  1) (  3,  1,  9) (  3,  3,  3) (  3,  1, 10) (  3,  1,  1)
    -0.2023       -0.4791        -1.280        0.5628        0.1157    
  (  3,  1, 10) (  3,  1,  1) (  3,  1, 10) (  3,  1, 10) (  2, 10, 10)
    -0.5605E-01   -0.1084E-01   -0.7023E-02   -0.3016E-02   -0.1950E-02
  (  2, 10, 10) (  2,  1,  2) (  3,  3,  7) (  3,  4,  7) (  3,  3,  6)
     0.8163E-03    0.1923E-02    0.2393E-02    0.3397E-02    0.3763E-02
  (  3, 10, 10) (  3,  6,  1) (  3,  1,  2) (  3,  1,  1) (  3,  1, 10)
     0.2253E-02    0.2565E-02    0.1769E-02    0.1149E-02    0.8169E-03
  (  3,  1,  1) (  3,  2,  2) (  3,  1,  1) (  3,  1, 10) (  3,  1, 10)
     0.5123E-03    0.5534E-03    0.3834E-03    0.2460E-03    0.1789E-03
  (  3,  1, 10) (  3,  1,  1) (  3,  1, 10) (  3,  1,  1) (  3,  1, 10)
     0.1064E-03    0.1218E-03    0.8339E-04    0.5419E-04    0.3952E-04
  (  3,  1,  1) (  3,  1, 10) (  3,  1,  1) (  3,  1, 10) (  3,  1, 10)
     0.2429E-04    0.2658E-04    0.1812E-04    0.1203E-04    0.7752E-05
  (  3,  1, 10) (  3,  1,  1) (  3,  1, 10) (  3,  1, 10) (  3,  1,  7)


 OUTPUT CONTROL FOR STRESS PERIOD   10   TIME STEP    3
    SAVE HEAD FOR ALL LAYERS

 HEAD WILL BE SAVED ON UNIT   21 AT END OF TIME STEP    3, STRESS PERIOD   10
 
 SOLVING FOR HEAD 
    36 ITERATIONS FOR TIME STEP   4 IN STRESS PERIOD   10

 MAXIMUM HEAD CHANGE FOR EACH ITERATION:

    HEAD CHANGE   HEAD CHANGE   HEAD CHANGE   HEAD CHANGE   HEAD CHANGE
  LAYER,ROW,COL LAYER,ROW,COL LAYER,ROW,COL LAYER,ROW,COL LAYER,ROW,COL
 ----------------------------------------------------------------------
     0.9894         2.357         1.839        -1.181        -3.242    
  (  3,  1,  7) (  3,  1, 10) (  3,  2,  4) (  3,  2, 10) (  3,  1,  1)
     0.3097        0.1246       -0.2662E-01   -0.2217E-01   -0.1804E-01
  (  3, 10, 10) (  3,  9,  7) (  3,  3,  1) (  3,  3,  6) (  3,  3,  7)
    -0.6540E-02   -0.1108E-01   -0.5196E-02   -0.4162E-02    0.2552E-02
  (  3,  3,  6) (  3,  3,  7) (  3,  3,  7) (  3,  3,  7) (  3,  1, 10)
     0.1783E-02    0.4049E-02    0.3347E-02    0.2177E-02    0.1574E-02
  (  3,  6,  1) (  3,  1,  1) (  3,  1,  4) (  3,  1,  1) (  3,  1,  1)
     0.8699E-03    0.1017E-02    0.7498E-03    0.4543E-03    0.3201E-03
  (  3,  1,  1) (  3,  2,  2) (  3,  1,  1) (  3,  1,  1) (  3,  1,  8)
     0.1785E-03    0.2193E-03    0.1502E-03    0.9501E-04    0.6786E-04
  (  3,  1,  1) (  3,  1,  1) (  3,  1,  5) (  3,  1,  8) (  3,  1,  1)
     0.3813E-04    0.4318E-04    0.3228E-04    0.2006E-04    0.1482E-04
  (  3,  1,  1) (  3,  1,  3) (  3,  1,  1) (  3,  1,  6) (  3,  1,  8)
     0.8890E-05
  (  3,  1,  1)


 OUTPUT CONTROL FOR STRESS PERIOD   10   TIME STEP    4
    SAVE HEAD FOR ALL LAYERS

 HEAD WILL BE SAVED ON UNIT   21 AT END OF TIME STEP    4, STRESS PERIOD   10
 
 SOLVING FOR HEAD 
    34 ITERATIONS FOR TIME STEP   5 IN STRESS PERIOD   10

 MAXIMUM HEAD CHANGE FOR EACH ITERATION:

    HEAD CHANGE   HEAD CHANGE   HEAD CHANGE   HEAD CHANGE   HEAD CHANGE
  LAYER,ROW,COL LAYER,ROW,COL LAYER,ROW,COL LAYER,ROW,COL LAYER,ROW,COL
 ----------------------------------------------------------------------
     0.6988         1.493         1.315        -1.227        -2.897    
  (  3,  1,  8) (  3,  1, 10) (  3,  1,  1) (  3,  2, 10) (  3,  1,  1)
     0.8221        0.4979        0.1402        0.7214E-01   -0.4892E-01
  (  3, 10,  1) (  3,  9,  3) (  2,  1,  7) (  2, 10,  1) (  2, 10, 10)
     0.7785E-01    0.1332E-01   -0.8402E-02   -0.4503E-02   -0.3043E-02
  (  2,  6,  1) (  2,  1,  2) (  3,  8,  4) (  3,  8,  2) (  3,  9,  1)
    -0.2571E-02   -0.2097E-02   -0.1575E-02   -0.8512E-03   -0.5553E-03
  (  2,  5,  1) (  3,  9,  2) (  3,  9,  1) (  3,  9,  7) (  3,  9,  7)
    -0.2510E-03   -0.3897E-03   -0.2929E-03   -0.1589E-03   -0.1073E-03
  (  3, 10, 10) (  3,  9,  2) (  3,  9,  7) (  3,  8,  2) (  3,  9,  7)
    -0.5618E-04   -0.7398E-04   -0.5693E-04    0.3419E-04    0.2682E-04
  (  3,  3,  6) (  3,  9,  7) (  3,  3,  6) (  3,  1,  9) (  3,  1,  9)
     0.1926E-04    0.1513E-04    0.1013E-04    0.6628E-05
  (  3,  1,  9) (  3,  1,  9) (  3,  1,  9) (  3,  1,  9)


 OUTPUT CONTROL FOR STRESS PERIOD   10   TIME STEP    5
    SAVE HEAD FOR ALL LAYERS

 HEAD WILL BE SAVED ON UNIT   21 AT END OF TIME STEP    5, STRESS PERIOD   10
 
 SOLVING FOR HEAD 
    33 ITERATIONS FOR TIME STEP   6 IN STRESS PERIOD   10

 MAXIMUM HEAD CHANGE FOR EACH ITERATION:

    HEAD CHANGE   HEAD CHANGE   HEAD CHANGE   HEAD CHANGE   HEAD CHANGE
  LAYER,ROW,COL LAYER,ROW,COL LAYER,ROW,COL LAYER,ROW,COL LAYER,ROW,COL
 ----------------------------------------------------------------------
     0.3861        0.8479        0.5411        -1.254        -1.244    
  (  3,  1,  9) (  3,  1, 10) (  3,  1,  1) (  3,  1, 10) (  3,  1,  1)
     0.5074        0.2917        0.7599E-01   -0.2457E-01   -0.2394E-01
  (  3,  1, 10) (  3,  2,  2) (  2,  1,  9) (  3,  2,  1) (  2,  1, 10)
     0.2440E-01   -0.1242E-01   -0.1034E-01   -0.5362E-02   -0.3368E-02
  (  2,  7,  1) (  3,  2,  7) (  3,  3,  6) (  3,  3,  6) (  3,  3,  6)
    -0.2780E-02   -0.2236E-02   -0.1884E-02   -0.9952E-03   -0.6379E-03
  (  2,  7,  1) (  3,  3,  6) (  3,  3,  6) (  3,  3,  6) (  3,  3,  6)
    -0.4225E-03   -0.4218E-03   -0.3542E-03   -0.1929E-03   -0.1270E-03
  (  2,  8,  1) (  3,  3,  6) (  3,  3,  6) (  3,  3,  6) (  3,  3,  6)
    -0.5447E-04   -0.8233E-04   -0.6945E-04   -0.3926E-04   -0.2565E-04
  (  3,  3,  6) (  3,  3,  6) (  3,  3,  6) (  3,  3,  6) (  3,  3,  6)
    -0.1248E-04   -0.1198E-04   -0.7513E-05
  (  3,  3,  6) (  3,  3,  6) (  3,  3,  6)


 OUTPUT CONTROL FOR STRESS PERIOD   10   TIME STEP    6
    PRINT BUDGET
    PRINT HEAD FOR ALL LAYERS
    SAVE HEAD FOR ALL LAYERS
    SAVE DRAWDOWN FOR ALL LAYERS
1
              HEAD IN LAYER   1 AT END OF TIME STEP   6 IN STRESS PERIOD   10
  ---------------------------------------------------------------------------

           1       2       3       4       5       6       7       8       9      10
 ...................................................................................
   1    21.62   21.27   20.61   20.19   19.98   19.98   20.19   20.60   21.26   21.61
   2    20.59   20.09   19.66   19.37   19.21   19.21   19.36   19.66   20.08   20.58
   3    19.10   18.61   18.24   17.99   17.87   17.86   17.99   18.23   18.60   19.09
   4    17.07   16.64   16.34   16.15   16.05   16.05   16.14   16.33   16.63   17.06
   5    14.19   14.10   14.00   13.92   13.87   13.87   13.92   14.00   14.10   14.18
   6    11.63   11.60   11.56   11.52   11.50   11.50   11.52   11.56   11.59   11.62
   7     9.13    9.11    9.07    9.04    9.01    9.01    9.03    9.07    9.11    9.13
   8     6.69    6.64    6.54    6.45    6.40    6.40    6.45    6.54    6.63    6.69
   9     4.44    4.27    3.98    3.65    3.51    3.51    3.65    3.98    4.27    4.44
  10     2.81    2.40    1.52    0.00    0.00    0.00    0.00    1.52    2.40    2.81
1
              HEAD IN LAYER   2 AT END OF TIME STEP   6 IN STRESS PERIOD   10
  ---------------------------------------------------------------------------

           1       2       3       4       5       6       7       8       9      10
 ...................................................................................
   1     0.78    0.80    0.81    0.81    0.80    0.79    0.76    0.74    0.71    0.66
   2     0.63    2.00    1.77    1.30    0.82    0.45    0.49    0.82    1.11    0.45
   3     0.43    1.35    0.93    0.13   -1.02   -2.57   -2.18   -0.85    0.04    0.21
   4     0.18    0.86    0.51   -0.07   -0.81   -1.65   -1.50   -0.79   -0.21   -0.05
   5    -0.09    0.38    0.24   -0.02   -0.30   -0.52   -0.54   -0.40   -0.26   -0.31
   6    -0.38   -0.10   -0.15   -0.26   -0.37   -0.45   -0.48   -0.47   -0.45   -0.57
   7    -0.69   -0.68   -0.73   -0.79   -0.85   -0.89   -0.90   -0.90   -0.88   -0.84
   8    -0.99   -1.41   -1.53   -1.60   -1.64   -1.66   -1.65   -1.61   -1.52   -1.11
   9    -1.29   -2.19   -2.45   -2.62   -2.70   -2.71   -2.65   -2.50   -2.25   -1.36
  10    -1.55   -1.61   -1.66   -1.70   -1.72   -1.72   -1.71   -1.68   -1.64   -1.59
1
              HEAD IN LAYER   3 AT END OF TIME STEP   6 IN STRESS PERIOD   10
  ---------------------------------------------------------------------------

           1       2       3       4       5       6       7       8       9      10
 ...................................................................................
   1   -15.17  -15.33  -15.63  -16.02  -16.44  -16.77  -16.92  -16.90  -16.82  -16.76
   2   -15.31  -15.56  -16.05  -16.76  -17.60  -18.36  -18.42  -18.01  -17.60  -17.37
   3   -15.24  -15.61  -16.42  -17.79  -20.00  -23.58  -22.72  -20.01  -18.54  -17.89
   4   -14.41  -14.72  -15.35  -16.34  -17.75  -19.60  -19.32  -17.97  -17.09  -16.66
   5   -13.07  -13.23  -13.56  -14.01  -14.53  -14.97  -15.04  -14.85  -14.63  -14.50
   6   -11.67  -11.75  -11.89  -12.09  -12.29  -12.45  -12.53  -12.53  -12.50  -12.48
   7   -10.48  -10.52  -10.58  -10.67  -10.75  -10.83  -10.88  -10.91  -10.92  -10.92
   8    -9.59   -9.61   -9.64   -9.68   -9.73   -9.76   -9.80   -9.82   -9.83   -9.83
   9    -9.02   -9.03   -9.05   -9.07   -9.09   -9.11   -9.13   -9.14   -9.15   -9.15
  10    -8.73   -8.74   -8.75   -8.76   -8.78   -8.79   -8.81   -8.82   -8.82   -8.83

 HEAD WILL BE SAVED ON UNIT   21 AT END OF TIME STEP    6, STRESS PERIOD   10

 DRAWDOWN WILL BE SAVED ON UNIT   22 AT END OF TIME STEP    6, STRESS PERIOD   10
1
  VOLUMETRIC BUDGET FOR ENTIRE MODEL AT END OF TIME STEP    6, STRESS PERIOD  10
  ------------------------------------------------------------------------------

     CUMULATIVE VOLUMES      L**3       RATES FOR THIS TIME STEP      L**3/T
     ------------------                 ------------------------

           IN:                                      IN:
           ---                                      ---
             STORAGE =    17129232.0000               STORAGE =        4497.5552
       CONSTANT HEAD =       50346.9180         CONSTANT HEAD =          41.0586
               WELLS =    98661024.0000                 WELLS =       30000.0000
    INST. IB STORAGE =    25423216.0000      INST. IB STORAGE =        5632.2871
    DELAY IB STORAGE =    49762780.0000      DELAY IB STORAGE =       16644.5254

            TOTAL IN =   191026608.0000              TOTAL IN =       56815.4258

          OUT:                                     OUT:
          ----                                     ----
             STORAGE =           0.0000               STORAGE =           0.0000
       CONSTANT HEAD =    92395576.0000         CONSTANT HEAD =       26815.4922
               WELLS =    98631024.0000                 WELLS =       30000.0000
    INST. IB STORAGE =           0.0000      INST. IB STORAGE =           0.0000
    DELAY IB STORAGE =           0.0000      DELAY IB STORAGE =           0.0000

           TOTAL OUT =   191026592.0000             TOTAL OUT =       56815.4922

            IN - OUT =          16.0000              IN - OUT =      -6.6406E-02

 PERCENT DISCREPANCY =           0.00     PERCENT DISCREPANCY =          -0.00






         TIME SUMMARY AT END OF TIME STEP    6 IN STRESS PERIOD   10
                    SECONDS     MINUTES      HOURS       DAYS        YEARS
                    -----------------------------------------------------------
   TIME STEP LENGTH 9.18681E+06 1.53113E+05  2551.9      106.33     0.29111    
 STRESS PERIOD TIME 3.15619E+07 5.26032E+05  8767.2      365.30      1.0001    
         TOTAL TIME 2.84144E+08 4.73573E+06  78929.      3288.7      9.0040    
1

                               VOLUMETRIC BUDGET FOR SYSTEMS OF DELAY INTERBEDS
                                          AT END OF TIME STEP  6 IN STRESS PERIOD 10

          |   C U M U L A T I V E   V O L U M E S   L**3           | R A T E S   F O R  T H I S  T I M E  S T E P   L**3/T  |
   SYSTEM |    CHANGE IN     BOUNDARY                    PERCENT   |    CHANGE IN     BOUNDARY                    PERCENT   |
   NUMBER |     STORAGE        FLOW           SUM      DISCREPANCY |     STORAGE        FLOW           SUM      DISCREPANCY |
  --------|--------------------------------------------------------|--------------------------------------------------------|
      1     41689.        -41689.        0.39062E-02    0.93699E-05     11.860        -11.860        0.28610E-05    0.24123E-04
      2    0.49721E+08   -0.49721E+08     0.0000         0.0000         16633.        -16633.         0.0000         0.0000    
  --------|--------------------------------------------------------|--------------------------------------------------------|
 TOTALS:    0.49763E+08   -0.49763E+08     0.0000         0.0000         16645.        -16645.         0.0000         0.0000    
1
                            STRESS PERIOD NO.   11, LENGTH =   365.3000    
                            -----------------------------------------------

                              NUMBER OF TIME STEPS =     6

                               MULTIPLIER FOR DELT =     1.300

                            INITIAL TIME STEP SIZE =   28.63744    

 REUSING NON-PARAMETER WELLS FROM LAST STRESS PERIOD

     14 WELLS
 
 SOLVING FOR HEAD 

    44 ITERATIONS FOR TIME STEP   1 IN STRESS PERIOD   11

 MAXIMUM HEAD CHANGE FOR EACH ITERATION:

    HEAD CHANGE   HEAD CHANGE   HEAD CHANGE   HEAD CHANGE   HEAD CHANGE
  LAYER,ROW,COL LAYER,ROW,COL LAYER,ROW,COL LAYER,ROW,COL LAYER,ROW,COL
 ----------------------------------------------------------------------
      2.203         4.326         3.064        -1.872        -3.264    
  (  3,  2, 10) (  3,  1,  9) (  3,  1,  1) (  3,  1,  5) (  3,  1,  1)
    -0.3223       -0.7928        -1.761        -1.106        0.8004    
  (  3,  1, 10) (  3,  1,  1) (  3,  1, 10) (  3,  2,  1) (  3,  1,  1)
    -0.8446E-01   -0.9188E-02   -0.6033E-02   -0.5332E-02   -0.2034E-02
  (  2,  7,  1) (  3,  3,  7) (  3,  3,  6) (  3,  3,  7) (  3,  3,  6)
    -0.2430E-02    0.9016E-03   -0.1219E-02    0.1378E-02    0.8014E-03
  (  3,  3,  6) (  3,  9,  5) (  3,  3,  6) (  3,  1,  9) (  3,  6,  1)
     0.1416E-02    0.1534E-02    0.1596E-02    0.2920E-02    0.1799E-02
  (  3,  1,  1) (  3,  1, 10) (  3, 10, 10) (  3,  2, 10) (  3,  1,  8)
     0.1212E-02    0.1135E-02    0.8194E-03    0.5852E-03    0.4344E-03
  (  3,  1, 10) (  3,  2,  9) (  3,  1,  7) (  3,  1,  8) (  3,  1,  7)
     0.2862E-03    0.2803E-03    0.1962E-03    0.1410E-03    0.1063E-03
  (  3,  1,  8) (  3,  1,  8) (  3,  1,  8) (  3,  1,  7) (  3,  1,  8)
     0.7001E-04    0.6564E-04    0.4805E-04    0.3482E-04    0.2490E-04
  (  3,  1,  7) (  3,  2,  9) (  3,  1,  7) (  3,  1,  8) (  3,  1,  6)
     0.1706E-04    0.1674E-04    0.1160E-04    0.7700E-05
  (  3,  1,  7) (  3,  1,  7) (  3,  1,  8) (  3,  1,  3)


 OUTPUT CONTROL FOR STRESS PERIOD   11   TIME STEP    1
    SAVE HEAD FOR ALL LAYERS

 HEAD WILL BE SAVED ON UNIT   21 AT END OF TIME STEP    1, STRESS PERIOD   11
 
 SOLVING FOR HEAD 
    41 ITERATIONS FOR TIME STEP   2 IN STRESS PERIOD   11

 MAXIMUM HEAD CHANGE FOR EACH ITERATION:

    HEAD CHANGE   HEAD CHANGE   HEAD CHANGE   HEAD CHANGE   HEAD CHANGE
  LAYER,ROW,COL LAYER,ROW,COL LAYER,ROW,COL LAYER,ROW,COL LAYER,ROW,COL
 ----------------------------------------------------------------------
      1.646         4.195         2.820        -1.543        -3.402    
  (  3,  1,  1) (  3,  1, 10) (  3,  2,  1) (  3,  1, 10) (  3,  1,  1)
    -0.2585       -0.6323        -1.564        0.3142        0.3563E-01
  (  3,  1, 10) (  3,  1,  1) (  3,  1, 10) (  3, 10,  1) (  2, 10,  1)
    -0.7189E-01   -0.7561E-02   -0.5318E-02   -0.2267E-02   -0.3114E-02
  (  2,  8,  1) (  2,  1,  2) (  3,  3,  6) (  3,  3,  6) (  3,  3,  6)
     0.1407E-02    0.1316E-02    0.2857E-02    0.1713E-02    0.3321E-02
  (  3,  8, 10) (  3, 10, 10) (  3,  1,  4) (  3, 10, 10) (  3,  1,  4)
     0.1642E-02    0.3059E-02    0.2540E-02    0.1780E-02    0.1326E-02
  (  3, 10, 10) (  3,  1,  4) (  3,  2,  8) (  3,  1,  6) (  3,  1,  8)
     0.8321E-03    0.8783E-03    0.6001E-03    0.4129E-03    0.2990E-03
  (  3,  1, 10) (  3,  2,  8) (  3,  1,  7) (  3,  1,  8) (  3,  1,  6)
     0.1905E-03    0.2015E-03    0.1384E-03    0.9346E-04    0.7035E-04
  (  3,  1,  1) (  3,  2,  9) (  3,  2,  8) (  3,  1,  7) (  3,  1,  8)
     0.4264E-04    0.4671E-04    0.3134E-04    0.2211E-04    0.1587E-04
  (  3,  1,  6) (  3,  2,  8) (  3,  1,  8) (  3,  2, 10) (  3,  2,  4)
     0.9973E-05
  (  3,  1,  9)


 OUTPUT CONTROL FOR STRESS PERIOD   11   TIME STEP    2
    SAVE HEAD FOR ALL LAYERS

 HEAD WILL BE SAVED ON UNIT   21 AT END OF TIME STEP    2, STRESS PERIOD   11
 
 SOLVING FOR HEAD 
    41 ITERATIONS FOR TIME STEP   3 IN STRESS PERIOD   11

 MAXIMUM HEAD CHANGE FOR EACH ITERATION:

    HEAD CHANGE   HEAD CHANGE   HEAD CHANGE   HEAD CHANGE   HEAD CHANGE
  LAYER,ROW,COL LAYER,ROW,COL LAYER,ROW,COL LAYER,ROW,COL LAYER,ROW,COL
 ----------------------------------------------------------------------
      1.443         3.179         2.557        -1.315        -3.360    
  (  3,  1,  5) (  3,  1, 10) (  3,  1,  1) (  3,  1, 10) (  3,  1,  1)
    -0.1855       -0.4576        -1.213        0.5460        0.8802E-01
  (  3,  1, 10) (  3,  1,  1) (  3,  1, 10) (  3, 10,  1) (  2, 10, 10)
    -0.5306E-01   -0.1064E-01   -0.6707E-02   -0.3006E-02   -0.2032E-02
  (  2,  7,  1) (  2,  1,  2) (  3,  3,  7) (  3,  3,  7) (  3,  3,  7)
     0.1077E-02    0.1692E-02    0.2339E-02    0.3125E-02    0.3711E-02
  (  3, 10,  1) (  3,  6,  1) (  3,  1,  3) (  3,  1,  1) (  3,  1,  8)
     0.2231E-02    0.2985E-02    0.2084E-02    0.1430E-02    0.1027E-02
  (  3,  1,  1) (  3,  1,  6) (  3,  1,  6) (  3,  1,  6) (  3,  1,  6)
     0.6351E-03    0.6547E-03    0.4863E-03    0.3200E-03    0.2382E-03
  (  3,  1,  6) (  3,  1,  6) (  3,  1,  6) (  3,  1,  6) (  3,  1,  6)
     0.1442E-03    0.1548E-03    0.1077E-03    0.7549E-04    0.5447E-04
  (  3,  1,  6) (  3,  1,  6) (  3,  1,  6) (  3,  1,  6) (  3,  1,  6)
     0.3492E-04    0.3411E-04    0.2590E-04    0.1753E-04    0.1212E-04
  (  3,  1,  6) (  3,  1,  6) (  3,  1,  6) (  3,  1,  6) (  3,  1,  6)
     0.5681E-05
  (  3,  1,  6)


 OUTPUT CONTROL FOR STRESS PERIOD   11   TIME STEP    3
    SAVE HEAD FOR ALL LAYERS

 HEAD WILL BE SAVED ON UNIT   21 AT END OF TIME STEP    3, STRESS PERIOD   11
 
 SOLVING FOR HEAD 
    36 ITERATIONS FOR TIME STEP   4 IN STRESS PERIOD   11

 MAXIMUM HEAD CHANGE FOR EACH ITERATION:

    HEAD CHANGE   HEAD CHANGE   HEAD CHANGE   HEAD CHANGE   HEAD CHANGE
  LAYER,ROW,COL LAYER,ROW,COL LAYER,ROW,COL LAYER,ROW,COL LAYER,ROW,COL
 ----------------------------------------------------------------------
     0.8518         2.171         1.947        -1.103        -3.166    
  (  3,  1,  8) (  3,  1, 10) (  3,  1,  1) (  3,  2, 10) (  3,  1,  1)
     0.2738       -0.2342        0.1279       -0.1608E-01   -0.1732E-01
  (  3, 10, 10) (  3,  1,  1) (  3,  1,  1) (  3,  4,  9) (  3,  3,  7)
    -0.9449E-02   -0.1028E-01   -0.4125E-02   -0.3818E-02    0.2400E-02
  (  2,  7,  1) (  3,  3,  7) (  3,  3,  7) (  3,  3,  7) (  3,  1,  8)
     0.1680E-02    0.3600E-02    0.3172E-02    0.2009E-02    0.1425E-02
  (  3,  6,  1) (  3,  1,  1) (  3,  2,  2) (  3,  1,  8) (  3,  1,  1)
     0.7567E-03    0.9935E-03    0.6905E-03    0.4142E-03    0.2928E-03
  (  3,  1,  1) (  3,  2,  2) (  3,  2,  1) (  3,  2,  1) (  3,  2,  9)
     0.1540E-03    0.1998E-03    0.1409E-03    0.8790E-04    0.6012E-04
  (  3,  1,  6) (  3,  2,  2) (  3,  2,  2) (  3,  2,  9) (  3,  2,  1)
     0.3463E-04    0.4148E-04    0.2899E-04    0.1820E-04    0.1321E-04
  (  2,  8,  1) (  3,  2,  2) (  3,  2,  9) (  3,  1,  6) (  3,  2,  9)
     0.6145E-05
  (  3,  1, 10)


 OUTPUT CONTROL FOR STRESS PERIOD   11   TIME STEP    4
    SAVE HEAD FOR ALL LAYERS

 HEAD WILL BE SAVED ON UNIT   21 AT END OF TIME STEP    4, STRESS PERIOD   11
 
 SOLVING FOR HEAD 
    33 ITERATIONS FOR TIME STEP   5 IN STRESS PERIOD   11

 MAXIMUM HEAD CHANGE FOR EACH ITERATION:

    HEAD CHANGE   HEAD CHANGE   HEAD CHANGE   HEAD CHANGE   HEAD CHANGE
  LAYER,ROW,COL LAYER,ROW,COL LAYER,ROW,COL LAYER,ROW,COL LAYER,ROW,COL
 ----------------------------------------------------------------------
     0.7141         1.258         1.238        -1.092        -2.836    
  (  3,  1, 10) (  3,  2, 10) (  3,  1,  1) (  3,  1, 10) (  3,  1,  1)
     0.7651        0.4631        0.1293        0.6649E-01   -0.4504E-01
  (  3, 10,  1) (  3,  9,  3) (  2,  1,  7) (  2, 10,  1) (  2, 10, 10)
     0.7191E-01    0.1220E-01   -0.7583E-02   -0.4051E-02   -0.2739E-02
  (  2,  6,  1) (  2,  1,  2) (  3,  9,  4) (  3,  9,  4) (  3,  9,  2)
    -0.2452E-02   -0.1898E-02   -0.1413E-02   -0.7670E-03   -0.5018E-03
  (  2,  6,  1) (  3,  9,  3) (  3,  9,  3) (  3,  9,  4) (  3,  9,  3)
    -0.2300E-03   -0.3513E-03   -0.2661E-03   -0.1422E-03   -0.9736E-04
  (  3, 10, 10) (  3,  9,  2) (  3,  9,  4) (  3,  9,  4) (  3,  9,  3)
    -0.4557E-04   -0.6760E-04   -0.5022E-04   -0.3081E-04   -0.1843E-04
  (  3,  3,  6) (  3,  9,  3) (  3,  9,  3) (  3,  3,  6) (  3,  3,  6)
     0.1206E-04    0.1009E-04    0.6837E-05
  (  3,  1, 10) (  3,  1, 10) (  3,  1, 10)


 OUTPUT CONTROL FOR STRESS PERIOD   11   TIME STEP    5
    SAVE HEAD FOR ALL LAYERS

 HEAD WILL BE SAVED ON UNIT   21 AT END OF TIME STEP    5, STRESS PERIOD   11
 
 SOLVING FOR HEAD 
    32 ITERATIONS FOR TIME STEP   6 IN STRESS PERIOD   11

 MAXIMUM HEAD CHANGE FOR EACH ITERATION:

    HEAD CHANGE   HEAD CHANGE   HEAD CHANGE   HEAD CHANGE   HEAD CHANGE
  LAYER,ROW,COL LAYER,ROW,COL LAYER,ROW,COL LAYER,ROW,COL LAYER,ROW,COL
 ----------------------------------------------------------------------
     0.4378        0.8293        0.5079        -1.244        -1.253    
  (  3,  1,  8) (  3,  1, 10) (  3,  3,  3) (  3,  1, 10) (  3,  1,  1)
     0.5228        0.3085        0.8354E-01    0.2697E-01   -0.2603E-01
  (  3,  1, 10) (  3,  2,  2) (  2,  1,  9) (  2, 10,  1) (  2, 10, 10)
     0.2580E-01   -0.1269E-01   -0.1065E-01   -0.5487E-02   -0.3387E-02
  (  2,  7,  1) (  3,  2,  7) (  3,  3,  6) (  3,  3,  6) (  3,  3,  6)
    -0.2692E-02   -0.2256E-02   -0.1916E-02   -0.9881E-03   -0.6327E-03
  (  2,  7,  1) (  3,  3,  6) (  3,  3,  6) (  3,  3,  6) (  3,  3,  6)
    -0.4293E-03   -0.4173E-03   -0.3495E-03   -0.1872E-03   -0.1213E-03
  (  2,  8,  1) (  3,  3,  6) (  3,  3,  6) (  3,  3,  6) (  3,  3,  6)
    -0.5045E-04   -0.7975E-04   -0.6675E-04   -0.3764E-04   -0.2445E-04
  (  3,  3,  6) (  3,  3,  6) (  3,  3,  6) (  3,  3,  6) (  3,  3,  6)
    -0.1157E-04   -0.8527E-05
  (  2,  8,  1) (  3,  3,  6)


 OUTPUT CONTROL FOR STRESS PERIOD   11   TIME STEP    6
    PRINT BUDGET
    PRINT HEAD FOR ALL LAYERS
    SAVE HEAD FOR ALL LAYERS
    SAVE DRAWDOWN FOR ALL LAYERS
1
              HEAD IN LAYER   1 AT END OF TIME STEP   6 IN STRESS PERIOD   11
  ---------------------------------------------------------------------------

           1       2       3       4       5       6       7       8       9      10
 ...................................................................................
   1    21.50   21.15   20.49   20.07   19.87   19.87   20.07   20.49   21.15   21.50
   2    20.47   19.97   19.55   19.25   19.10   19.10   19.25   19.54   19.96   20.47
   3    18.99   18.50   18.13   17.88   17.76   17.75   17.88   18.12   18.49   18.98
   4    16.97   16.53   16.23   16.04   15.95   15.95   16.04   16.23   16.52   16.96
   5    14.10   14.01   13.91   13.82   13.78   13.78   13.82   13.90   14.00   14.09
   6    11.54   11.51   11.48   11.44   11.42   11.42   11.44   11.47   11.51   11.54
   7     9.06    9.04    9.00    8.97    8.94    8.94    8.96    9.00    9.03    9.06
   8     6.64    6.58    6.49    6.40    6.34    6.34    6.40    6.49    6.58    6.63
   9     4.40    4.24    3.95    3.62    3.48    3.48    3.62    3.95    4.23    4.40
  10     2.78    2.38    1.50    0.00    0.00    0.00    0.00    1.50    2.38    2.78
1
              HEAD IN LAYER   2 AT END OF TIME STEP   6 IN STRESS PERIOD   11
  ---------------------------------------------------------------------------

           1       2       3       4       5       6       7       8       9      10
 ...................................................................................
   1     0.42    0.44    0.45    0.45    0.44    0.42    0.40    0.37    0.34    0.30
   2     0.28    1.59    1.36    0.88    0.40    0.03    0.07    0.40    0.69    0.10
   3     0.09    0.96    0.53   -0.27   -1.42   -2.98   -2.59   -1.26   -0.36   -0.14
   4    -0.15    0.49    0.14   -0.45   -1.19   -2.03   -1.88   -1.17   -0.59   -0.38
   5    -0.41    0.04   -0.10   -0.36   -0.64   -0.86   -0.88   -0.75   -0.60   -0.63
   6    -0.69   -0.40   -0.45   -0.56   -0.68   -0.76   -0.79   -0.78   -0.76   -0.88
   7    -0.98   -0.96   -1.00   -1.06   -1.12   -1.16   -1.17   -1.17   -1.15   -1.14
   8    -1.28   -1.65   -1.76   -1.83   -1.88   -1.90   -1.89   -1.85   -1.76   -1.39
   9    -1.56   -2.41   -2.66   -2.83   -2.91   -2.92   -2.86   -2.71   -2.47   -1.64
  10    -1.82   -1.87   -1.92   -1.96   -1.98   -1.98   -1.97   -1.94   -1.91   -1.86
1
              HEAD IN LAYER   3 AT END OF TIME STEP   6 IN STRESS PERIOD   11
  ---------------------------------------------------------------------------

           1       2       3       4       5       6       7       8       9      10
 ...................................................................................
   1   -15.89  -16.05  -16.35  -16.75  -17.17  -17.51  -17.66  -17.64  -17.56  -17.50
   2   -16.02  -16.27  -16.76  -17.48  -18.33  -19.09  -19.15  -18.74  -18.33  -18.10
   3   -15.92  -16.30  -17.11  -18.49  -20.70  -24.29  -23.42  -20.72  -19.25  -18.60
   4   -15.05  -15.36  -15.99  -16.99  -18.40  -20.26  -19.98  -18.63  -17.75  -17.32
   5   -13.65  -13.82  -14.14  -14.60  -15.12  -15.56  -15.64  -15.45  -15.23  -15.10
   6   -12.19  -12.27  -12.42  -12.61  -12.82  -12.98  -13.06  -13.07  -13.04  -13.01
   7   -10.94  -10.98  -11.05  -11.13  -11.22  -11.30  -11.35  -11.38  -11.39  -11.39
   8   -10.01  -10.03  -10.06  -10.10  -10.14  -10.18  -10.22  -10.24  -10.25  -10.25
   9    -9.40   -9.41   -9.43   -9.45   -9.47   -9.50   -9.51   -9.53   -9.54   -9.54
  10    -9.10   -9.10   -9.11   -9.13   -9.14   -9.16   -9.17   -9.18   -9.19   -9.19

 HEAD WILL BE SAVED ON UNIT   21 AT END OF TIME STEP    6, STRESS PERIOD   11

 DRAWDOWN WILL BE SAVED ON UNIT   22 AT END OF TIME STEP    6, STRESS PERIOD   11
1
  VOLUMETRIC BUDGET FOR ENTIRE MODEL AT END OF TIME STEP    6, STRESS PERIOD  11
  ------------------------------------------------------------------------------

     CUMULATIVE VOLUMES      L**3       RATES FOR THIS TIME STEP      L**3/T
     ------------------                 ------------------------

           IN:                                      IN:
           ---                                      ---
             STORAGE =    18749034.0000               STORAGE =        4392.3521
       CONSTANT HEAD =       66711.5469         CONSTANT HEAD =          47.3009
               WELLS =   109620032.0000                 WELLS =       30000.0000
    INST. IB STORAGE =    27465402.0000      INST. IB STORAGE =        5561.6934
    DELAY IB STORAGE =    55827064.0000      DELAY IB STORAGE =       16572.4609

            TOTAL IN =   211728240.0000              TOTAL IN =       56573.8086

          OUT:                                     OUT:
          ----                                     ----
             STORAGE =           0.0000               STORAGE =           0.0000
       CONSTANT HEAD =   102138200.0000         CONSTANT HEAD =       26573.9023
               WELLS =   109590032.0000                 WELLS =       30000.0000
    INST. IB STORAGE =           0.0000      INST. IB STORAGE =           0.0000
    DELAY IB STORAGE =           0.0000      DELAY IB STORAGE =           0.0000

           TOTAL OUT =   211728224.0000             TOTAL OUT =       56573.9023

            IN - OUT =          16.0000              IN - OUT =      -9.3750E-02

 PERCENT DISCREPANCY =           0.00     PERCENT DISCREPANCY =          -0.00






         TIME SUMMARY AT END OF TIME STEP    6 IN STRESS PERIOD   11
                    SECONDS     MINUTES      HOURS       DAYS        YEARS
                    -----------------------------------------------------------
   TIME STEP LENGTH 9.18681E+06 1.53113E+05  2551.9      106.33     0.29111    
 STRESS PERIOD TIME 3.15619E+07 5.26032E+05  8767.2      365.30      1.0001    
         TOTAL TIME 3.15706E+08 5.26176E+06  87696.      3654.0      10.004    
1

                               VOLUMETRIC BUDGET FOR SYSTEMS OF DELAY INTERBEDS
                                          AT END OF TIME STEP  6 IN STRESS PERIOD 11

          |   C U M U L A T I V E   V O L U M E S   L**3           | R A T E S   F O R  T H I S  T I M E  S T E P   L**3/T  |
   SYSTEM |    CHANGE IN     BOUNDARY                    PERCENT   |    CHANGE IN     BOUNDARY                    PERCENT   |
   NUMBER |     STORAGE        FLOW           SUM      DISCREPANCY |     STORAGE        FLOW           SUM      DISCREPANCY |
  --------|--------------------------------------------------------|--------------------------------------------------------|
      1     45988.        -45988.        0.78125E-02    0.16988E-04     11.640        -11.640        0.28610E-05    0.24580E-04
      2    0.55781E+08   -0.55781E+08     0.0000         0.0000         16561.        -16561.       -0.19531E-02   -0.11794E-04
  --------|--------------------------------------------------------|--------------------------------------------------------|
 TOTALS:    0.55827E+08   -0.55827E+08     0.0000         0.0000         16572.        -16572.       -0.19531E-02   -0.11785E-04
1
                            STRESS PERIOD NO.   12, LENGTH =   365.3000    
                            -----------------------------------------------

                              NUMBER OF TIME STEPS =     6

                               MULTIPLIER FOR DELT =     1.300

                            INITIAL TIME STEP SIZE =   28.63744    

 REUSING NON-PARAMETER WELLS FROM LAST STRESS PERIOD

     14 WELLS
 
 SOLVING FOR HEAD 

    44 ITERATIONS FOR TIME STEP   1 IN STRESS PERIOD   12

 MAXIMUM HEAD CHANGE FOR EACH ITERATION:

    HEAD CHANGE   HEAD CHANGE   HEAD CHANGE   HEAD CHANGE   HEAD CHANGE
  LAYER,ROW,COL LAYER,ROW,COL LAYER,ROW,COL LAYER,ROW,COL LAYER,ROW,COL
 ----------------------------------------------------------------------
      1.657         4.487         3.319        -1.752        -3.205    
  (  3,  1,  8) (  3,  1, 10) (  3,  1,  1) (  3,  1,  7) (  3,  1,  1)
    -0.3098       -0.7848        -1.736        -1.142        0.8092    
  (  3,  1, 10) (  3,  1,  1) (  3,  1, 10) (  3,  2,  1) (  3,  1,  1)
    -0.8730E-01   -0.8911E-02   -0.6017E-02   -0.4819E-02   -0.2272E-02
  (  2,  7,  1) (  3,  3,  6) (  3,  2,  6) (  3,  3,  6) (  3,  2, 10)
    -0.2333E-02   -0.6944E-03   -0.1284E-02    0.1400E-02    0.5055E-03
  (  3,  3,  5) (  3,  2,  8) (  3,  3,  5) (  3,  1,  1) (  3,  9,  7)
     0.1535E-02    0.1419E-02    0.1534E-02    0.2828E-02    0.1639E-02
  (  3,  1,  1) (  3,  2,  2) (  3,  9, 10) (  3,  1,  9) (  3,  1,  8)
     0.1114E-02    0.1101E-02    0.7654E-03    0.5313E-03    0.3999E-03
  (  3,  1, 10) (  3,  2,  2) (  3,  2,  3) (  3,  1,  5) (  3,  2,  3)
     0.2587E-03    0.2706E-03    0.1816E-03    0.1305E-03    0.9553E-04
  (  3,  1,  1) (  3,  2,  3) (  3,  2,  3) (  3,  2,  3) (  3,  1,  8)
     0.6368E-04    0.6456E-04    0.4462E-04    0.3098E-04    0.2367E-04
  (  3,  1,  5) (  3,  2,  2) (  3,  2,  3) (  3,  1,  5) (  3,  2,  3)
     0.1554E-04    0.1573E-04    0.1122E-04    0.7615E-05
  (  3,  1,  1) (  3,  2,  3) (  3,  1,  7) (  3,  2, 10)


 OUTPUT CONTROL FOR STRESS PERIOD   12   TIME STEP    1
    SAVE HEAD FOR ALL LAYERS

 HEAD WILL BE SAVED ON UNIT   21 AT END OF TIME STEP    1, STRESS PERIOD   12
 
 SOLVING FOR HEAD 
    42 ITERATIONS FOR TIME STEP   2 IN STRESS PERIOD   12

 MAXIMUM HEAD CHANGE FOR EACH ITERATION:

    HEAD CHANGE   HEAD CHANGE   HEAD CHANGE   HEAD CHANGE   HEAD CHANGE
  LAYER,ROW,COL LAYER,ROW,COL LAYER,ROW,COL LAYER,ROW,COL LAYER,ROW,COL
 ----------------------------------------------------------------------
      1.530         4.019         2.887        -1.494        -3.372    
  (  3,  1,  5) (  3,  1, 10) (  3,  1,  1) (  3,  1, 10) (  3,  1,  1)
    -0.2405       -0.6021        -1.510        0.2979        0.3367E-01
  (  3,  1, 10) (  3,  1,  1) (  3,  1, 10) (  3, 10,  1) (  2, 10,  1)
    -0.6676E-01   -0.9013E-02   -0.4001E-02   -0.1632E-02   -0.2706E-02
  (  2,  8,  1) (  2,  1,  2) (  3,  3,  7) (  3,  3,  6) (  3,  3,  7)
     0.1521E-02    0.1114E-02    0.2694E-02    0.1495E-02    0.3206E-02
  (  3, 10,  1) (  3, 10,  3) (  3,  1,  2) (  3, 10,  1) (  3,  1,  2)
     0.1467E-02    0.3029E-02    0.2523E-02    0.1898E-02    0.1391E-02
  (  3,  1,  6) (  3,  1,  2) (  3,  1,  6) (  3,  1,  6) (  3,  1,  6)
     0.8825E-03    0.8854E-03    0.6448E-03    0.4396E-03    0.3276E-03
  (  3,  1,  6) (  3,  1,  6) (  3,  1,  6) (  3,  1,  6) (  3,  1,  6)
     0.2038E-03    0.2122E-03    0.1476E-03    0.1036E-03    0.7653E-04
  (  3,  1,  6) (  3,  1,  6) (  3,  1,  6) (  3,  1,  6) (  3,  1,  6)
     0.4953E-04    0.4890E-04    0.3545E-04    0.2457E-04    0.1807E-04
  (  3,  1,  6) (  3,  1,  6) (  3,  1,  6) (  3,  1,  6) (  3,  1,  6)
     0.1166E-04    0.7604E-05
  (  3,  1,  6) (  3,  1,  6)


 OUTPUT CONTROL FOR STRESS PERIOD   12   TIME STEP    2
    SAVE HEAD FOR ALL LAYERS

 HEAD WILL BE SAVED ON UNIT   21 AT END OF TIME STEP    2, STRESS PERIOD   12
 
 SOLVING FOR HEAD 
    40 ITERATIONS FOR TIME STEP   3 IN STRESS PERIOD   12

 MAXIMUM HEAD CHANGE FOR EACH ITERATION:

    HEAD CHANGE   HEAD CHANGE   HEAD CHANGE   HEAD CHANGE   HEAD CHANGE
  LAYER,ROW,COL LAYER,ROW,COL LAYER,ROW,COL LAYER,ROW,COL LAYER,ROW,COL
 ----------------------------------------------------------------------
      1.369         3.123         2.259        -1.165        -3.216    
  (  3,  1,  1) (  3,  1, 10) (  3,  2,  1) (  3,  1, 10) (  3,  1,  1)
    -0.1864       -0.4678        -1.234        0.5299        0.4849E-01
  (  3,  1, 10) (  3,  1,  1) (  3,  1, 10) (  3, 10,  1) (  2, 10, 10)
    -0.5688E-01   -0.9682E-02   -0.6562E-02   -0.2909E-02   -0.2330E-02
  (  2,  7,  1) (  2,  1,  2) (  3,  3,  6) (  3,  3,  7) (  3,  3,  7)
     0.2112E-02    0.1736E-02    0.2091E-02    0.2651E-02    0.3716E-02
  (  3,  1,  1) (  3,  7,  4) (  3,  1,  1) (  3,  6,  1) (  3,  1,  8)
     0.2201E-02    0.2540E-02    0.1738E-02    0.1128E-02    0.8086E-03
  (  3,  1,  1) (  3,  2,  8) (  3,  1,  1) (  3,  1,  8) (  3,  1,  8)
     0.4930E-03    0.5404E-03    0.3785E-03    0.2421E-03    0.1748E-03
  (  3,  1, 10) (  3,  1,  1) (  3,  1,  8) (  3,  1,  8) (  3,  1,  8)
     0.1043E-03    0.1182E-03    0.8166E-04    0.5292E-04    0.3795E-04
  (  3,  1,  1) (  3,  2,  8) (  3,  1,  1) (  3,  1,  8) (  3,  1,  8)
     0.2244E-04    0.2550E-04    0.1763E-04    0.1213E-04    0.8267E-05
  (  3,  1, 10) (  3,  2,  9) (  3,  1,  8) (  3,  1,  2) (  3,  1,  8)


 OUTPUT CONTROL FOR STRESS PERIOD   12   TIME STEP    3
    SAVE HEAD FOR ALL LAYERS

 HEAD WILL BE SAVED ON UNIT   21 AT END OF TIME STEP    3, STRESS PERIOD   12
 
 SOLVING FOR HEAD 
    36 ITERATIONS FOR TIME STEP   4 IN STRESS PERIOD   12

 MAXIMUM HEAD CHANGE FOR EACH ITERATION:

    HEAD CHANGE   HEAD CHANGE   HEAD CHANGE   HEAD CHANGE   HEAD CHANGE
  LAYER,ROW,COL LAYER,ROW,COL LAYER,ROW,COL LAYER,ROW,COL LAYER,ROW,COL
 ----------------------------------------------------------------------
     0.8126         2.116         1.901        -1.022        -3.177    
  (  3,  1,  7) (  3,  1, 10) (  3,  1,  1) (  3,  2, 10) (  3,  1,  1)
     0.2607       -0.2054        0.7653E-01   -0.2063E-01   -0.1570E-01
  (  3, 10, 10) (  3,  2, 10) (  3,  1, 10) (  3,  3,  3) (  3,  3,  7)
    -0.8459E-02   -0.9662E-02   -0.3886E-02   -0.3491E-02    0.2519E-02
  (  2,  7,  1) (  3,  3,  7) (  3,  3,  7) (  3,  3,  7) (  3,  1,  1)
     0.1621E-02    0.3801E-02    0.3134E-02    0.1994E-02    0.1453E-02
  (  3,  7,  1) (  3,  1, 10) (  3,  2,  2) (  3,  1,  1) (  3,  1,  1)
     0.7710E-03    0.9836E-03    0.6874E-03    0.4172E-03    0.2812E-03
  (  3,  1,  1) (  3,  2,  2) (  3,  1,  1) (  3,  1,  2) (  3,  1,  1)
     0.1583E-03    0.2005E-03    0.1393E-03    0.8188E-04    0.6185E-04
  (  3,  1, 10) (  3,  1,  1) (  3,  2,  2) (  3,  1,  1) (  3,  1,  1)
     0.3581E-04    0.4084E-04    0.2895E-04    0.1745E-04    0.1222E-04
  (  2,  7,  1) (  3,  2,  2) (  3,  1,  1) (  3,  1,  1) (  3,  1,  7)
     0.6948E-05
  (  3,  1, 10)


 OUTPUT CONTROL FOR STRESS PERIOD   12   TIME STEP    4
    SAVE HEAD FOR ALL LAYERS

 HEAD WILL BE SAVED ON UNIT   21 AT END OF TIME STEP    4, STRESS PERIOD   12
 
 SOLVING FOR HEAD 
    31 ITERATIONS FOR TIME STEP   5 IN STRESS PERIOD   12

 MAXIMUM HEAD CHANGE FOR EACH ITERATION:

    HEAD CHANGE   HEAD CHANGE   HEAD CHANGE   HEAD CHANGE   HEAD CHANGE
  LAYER,ROW,COL LAYER,ROW,COL LAYER,ROW,COL LAYER,ROW,COL LAYER,ROW,COL
 ----------------------------------------------------------------------
     0.7754         1.489         1.173        -1.138        -2.838    
  (  3,  1,  1) (  3,  1, 10) (  3,  1,  1) (  3,  1, 10) (  3,  1,  1)
     0.7718        0.4613        0.1362        0.6997E-01   -0.4737E-01
  (  3, 10,  1) (  3,  9,  3) (  2,  1,  8) (  2, 10,  1) (  2, 10, 10)
     0.7582E-01    0.1276E-01   -0.7424E-02   -0.3996E-02   -0.2698E-02
  (  2,  6,  1) (  2,  1,  2) (  3,  9,  4) (  3,  9,  5) (  3,  9,  2)
    -0.2469E-02   -0.1863E-02   -0.1392E-02   -0.7533E-03   -0.4976E-03
  (  2,  6,  1) (  3,  9,  3) (  3,  9,  2) (  3,  9,  3) (  3,  9,  4)
    -0.2155E-03   -0.3469E-03   -0.2613E-03   -0.1422E-03   -0.9718E-04
  (  3, 10, 10) (  3,  9,  2) (  3,  9,  4) (  3,  9,  7) (  3,  9,  2)
    -0.4116E-04   -0.6658E-04   -0.4951E-04   -0.2856E-04   -0.1942E-04
  (  3,  3,  6) (  3,  9,  3) (  3,  9,  3) (  3,  3,  6) (  3,  3,  6)
    -0.9385E-05
  (  3,  3,  6)


 OUTPUT CONTROL FOR STRESS PERIOD   12   TIME STEP    5
    SAVE HEAD FOR ALL LAYERS

 HEAD WILL BE SAVED ON UNIT   21 AT END OF TIME STEP    5, STRESS PERIOD   12
 
 SOLVING FOR HEAD 
    32 ITERATIONS FOR TIME STEP   6 IN STRESS PERIOD   12

 MAXIMUM HEAD CHANGE FOR EACH ITERATION:

    HEAD CHANGE   HEAD CHANGE   HEAD CHANGE   HEAD CHANGE   HEAD CHANGE
  LAYER,ROW,COL LAYER,ROW,COL LAYER,ROW,COL LAYER,ROW,COL LAYER,ROW,COL
 ----------------------------------------------------------------------
     0.4375        0.8121        0.5829        -1.209        -1.306    
  (  3,  3, 10) (  3,  1, 10) (  3,  1,  1) (  3,  1, 10) (  3,  1,  1)
     0.5325        0.3203        0.8720E-01    0.2877E-01   -0.2730E-01
  (  3,  1, 10) (  3,  2,  2) (  2,  1,  9) (  2, 10,  1) (  2, 10, 10)
     0.2735E-01   -0.1247E-01   -0.1036E-01   -0.5322E-02   -0.3264E-02
  (  2,  7,  1) (  3,  2,  7) (  3,  3,  6) (  3,  3,  6) (  3,  3,  6)
    -0.2679E-02   -0.2178E-02   -0.1854E-02   -0.9462E-03   -0.6051E-03
  (  2,  7,  1) (  3,  3,  6) (  3,  3,  6) (  3,  3,  6) (  3,  3,  6)
    -0.4261E-03   -0.3982E-03   -0.3353E-03   -0.1782E-03   -0.1135E-03
  (  2,  8,  1) (  3,  3,  6) (  3,  3,  6) (  3,  3,  6) (  3,  3,  6)
    -0.4618E-04   -0.7437E-04   -0.6534E-04   -0.3393E-04   -0.2294E-04
  (  3,  3,  6) (  3,  3,  6) (  3,  3,  6) (  3,  3,  6) (  3,  3,  6)
    -0.1169E-04   -0.4418E-05
  (  2,  8,  1) (  3,  3,  7)


 OUTPUT CONTROL FOR STRESS PERIOD   12   TIME STEP    6
    PRINT BUDGET
    PRINT HEAD FOR ALL LAYERS
    SAVE HEAD FOR ALL LAYERS
    SAVE DRAWDOWN FOR ALL LAYERS
1
              HEAD IN LAYER   1 AT END OF TIME STEP   6 IN STRESS PERIOD   12
  ---------------------------------------------------------------------------

           1       2       3       4       5       6       7       8       9      10
 ...................................................................................
   1    21.39   21.04   20.38   19.96   19.76   19.75   19.96   20.37   21.04   21.38
   2    20.36   19.86   19.44   19.14   18.99   18.99   19.14   19.43   19.85   20.35
   3    18.88   18.39   18.02   17.77   17.65   17.65   17.77   18.01   18.38   18.87
   4    16.87   16.43   16.13   15.94   15.85   15.85   15.94   16.12   16.42   16.86
   5    14.00   13.91   13.81   13.73   13.69   13.68   13.73   13.81   13.91   13.99
   6    11.46   11.43   11.39   11.36   11.33   11.33   11.35   11.39   11.43   11.45
   7     8.99    8.97    8.93    8.90    8.87    8.87    8.90    8.93    8.97    8.99
   8     6.58    6.53    6.44    6.35    6.29    6.29    6.34    6.44    6.53    6.58
   9     4.36    4.20    3.91    3.59    3.45    3.45    3.59    3.91    4.20    4.36
  10     2.76    2.36    1.49    0.00    0.00    0.00    0.00    1.49    2.36    2.76
1
              HEAD IN LAYER   2 AT END OF TIME STEP   6 IN STRESS PERIOD   12
  ---------------------------------------------------------------------------

           1       2       3       4       5       6       7       8       9      10
 ...................................................................................
   1     0.07    0.09    0.09    0.09    0.08    0.06    0.04    0.02   -0.01   -0.05
   2    -0.07    1.20    0.96    0.48   -0.01   -0.37   -0.34   -0.01    0.29   -0.25
   3    -0.25    0.58    0.14   -0.66   -1.82   -3.38   -2.98   -1.66   -0.75   -0.48
   4    -0.47    0.13   -0.22   -0.81   -1.56   -2.40   -2.25   -1.54   -0.95   -0.71
   5    -0.73   -0.29   -0.43   -0.70   -0.98   -1.20   -1.22   -1.09   -0.94   -0.95
   6    -1.00   -0.70   -0.75   -0.87   -0.98   -1.06   -1.10   -1.08   -1.07   -1.19
   7    -1.28   -1.23   -1.27   -1.33   -1.39   -1.43   -1.44   -1.44   -1.43   -1.43
   8    -1.56   -1.89   -2.00   -2.07   -2.12   -2.14   -2.13   -2.09   -2.01   -1.68
   9    -1.83   -2.63   -2.88   -3.04   -3.12   -3.13   -3.08   -2.93   -2.70   -1.91
  10    -2.08   -2.14   -2.18   -2.22   -2.24   -2.24   -2.23   -2.21   -2.17   -2.12
1
              HEAD IN LAYER   3 AT END OF TIME STEP   6 IN STRESS PERIOD   12
  ---------------------------------------------------------------------------

           1       2       3       4       5       6       7       8       9      10
 ...................................................................................
   1   -16.59  -16.75  -17.06  -17.46  -17.88  -18.22  -18.37  -18.36  -18.28  -18.22
   2   -16.70  -16.96  -17.46  -18.17  -19.03  -19.79  -19.86  -19.45  -19.04  -18.81
   3   -16.58  -16.96  -17.78  -19.16  -21.38  -24.97  -24.11  -21.41  -19.94  -19.28
   4   -15.67  -15.98  -16.62  -17.62  -19.04  -20.90  -20.62  -19.27  -18.40  -17.97
   5   -14.22  -14.39  -14.72  -15.18  -15.70  -16.15  -16.23  -16.04  -15.82  -15.69
   6   -12.71  -12.79  -12.94  -13.13  -13.34  -13.51  -13.59  -13.60  -13.57  -13.54
   7   -11.41  -11.45  -11.52  -11.60  -11.69  -11.77  -11.83  -11.86  -11.87  -11.87
   8   -10.43  -10.45  -10.48  -10.53  -10.57  -10.61  -10.64  -10.67  -10.68  -10.68
   9    -9.79   -9.80   -9.82   -9.84   -9.87   -9.89   -9.91   -9.92   -9.93   -9.94
  10    -9.47   -9.48   -9.49   -9.51   -9.52   -9.54   -9.55   -9.56   -9.57   -9.57

 HEAD WILL BE SAVED ON UNIT   21 AT END OF TIME STEP    6, STRESS PERIOD   12

 DRAWDOWN WILL BE SAVED ON UNIT   22 AT END OF TIME STEP    6, STRESS PERIOD   12
1
  VOLUMETRIC BUDGET FOR ENTIRE MODEL AT END OF TIME STEP    6, STRESS PERIOD  12
  ------------------------------------------------------------------------------

     CUMULATIVE VOLUMES      L**3       RATES FOR THIS TIME STEP      L**3/T
     ------------------                 ------------------------

           IN:                                      IN:
           ---                                      ---
             STORAGE =    20331520.0000               STORAGE =        4292.1318
       CONSTANT HEAD =       85359.1250         CONSTANT HEAD =          53.5557
               WELLS =   120579040.0000                 WELLS =       30000.0000
    INST. IB STORAGE =    29485642.0000      INST. IB STORAGE =        5506.2490
    DELAY IB STORAGE =    61861380.0000      DELAY IB STORAGE =       16486.2969

            TOTAL IN =   232342944.0000              TOTAL IN =       56338.2344

          OUT:                                     OUT:
          ----                                     ----
             STORAGE =           0.0000               STORAGE =           0.0000
       CONSTANT HEAD =   111793904.0000         CONSTANT HEAD =       26338.2891
               WELLS =   120549040.0000                 WELLS =       30000.0000
    INST. IB STORAGE =           0.0000      INST. IB STORAGE =           0.0000
    DELAY IB STORAGE =           0.0000      DELAY IB STORAGE =           0.0000

           TOTAL OUT =   232342944.0000             TOTAL OUT =       56338.2891

            IN - OUT =           0.0000              IN - OUT =      -5.4688E-02

 PERCENT DISCREPANCY =           0.00     PERCENT DISCREPANCY =          -0.00






         TIME SUMMARY AT END OF TIME STEP    6 IN STRESS PERIOD   12
                    SECONDS     MINUTES      HOURS       DAYS        YEARS
                    -----------------------------------------------------------
   TIME STEP LENGTH 9.18681E+06 1.53113E+05  2551.9      106.33     0.29111    
 STRESS PERIOD TIME 3.15619E+07 5.26032E+05  8767.2      365.30      1.0001    
         TOTAL TIME 3.47268E+08 5.78779E+06  96463.      4019.3      11.004    
1

                               VOLUMETRIC BUDGET FOR SYSTEMS OF DELAY INTERBEDS
                                          AT END OF TIME STEP  6 IN STRESS PERIOD 12

          |   C U M U L A T I V E   V O L U M E S   L**3           | R A T E S   F O R  T H I S  T I M E  S T E P   L**3/T  |
   SYSTEM |    CHANGE IN     BOUNDARY                    PERCENT   |    CHANGE IN     BOUNDARY                    PERCENT   |
   NUMBER |     STORAGE        FLOW           SUM      DISCREPANCY |     STORAGE        FLOW           SUM      DISCREPANCY |
  --------|--------------------------------------------------------|--------------------------------------------------------|
      1     50180.        -50180.        0.78125E-02    0.15569E-04     11.384        -11.384         0.0000         0.0000    
      2    0.61811E+08   -0.61811E+08     8.0000        0.12943E-04     16475.        -16475.        0.39062E-02    0.23710E-04
  --------|--------------------------------------------------------|--------------------------------------------------------|
 TOTALS:    0.61861E+08   -0.61861E+08     8.0000        0.12932E-04     16486.        -16486.        0.39062E-02    0.23694E-04
1
                            STRESS PERIOD NO.   13, LENGTH =   365.3000    
                            -----------------------------------------------

                              NUMBER OF TIME STEPS =     6

                               MULTIPLIER FOR DELT =     1.300

                            INITIAL TIME STEP SIZE =   28.63744    

 REUSING NON-PARAMETER WELLS FROM LAST STRESS PERIOD

     14 WELLS
 
 SOLVING FOR HEAD 

    44 ITERATIONS FOR TIME STEP   1 IN STRESS PERIOD   13

 MAXIMUM HEAD CHANGE FOR EACH ITERATION:

    HEAD CHANGE   HEAD CHANGE   HEAD CHANGE   HEAD CHANGE   HEAD CHANGE
  LAYER,ROW,COL LAYER,ROW,COL LAYER,ROW,COL LAYER,ROW,COL LAYER,ROW,COL
 ----------------------------------------------------------------------
      1.659         4.556         2.881        -1.572        -3.142    
  (  3,  1,  1) (  3,  1, 10) (  3,  3,  1) (  3,  2, 10) (  3,  1,  1)
    -0.3089       -0.7691        -1.706        -1.177        0.8208    
  (  3,  1, 10) (  3,  1,  1) (  3,  1, 10) (  3,  2,  1) (  3,  1,  1)
    -0.8505E-01   -0.7710E-02   -0.5711E-02   -0.4506E-02   -0.2312E-02
  (  2,  7,  1) (  3,  3,  6) (  3,  2,  6) (  3,  3,  6) (  3,  2,  9)
    -0.2065E-02   -0.7239E-03   -0.1128E-02    0.1258E-02    0.6245E-03
  (  3,  4,  6) (  3,  2,  8) (  3,  4,  6) (  3,  9, 10) (  3,  1,  1)
     0.1395E-02    0.1428E-02    0.1500E-02    0.2756E-02    0.1691E-02
  (  3, 10, 10) (  3,  1,  2) (  3, 10, 10) (  3,  1,  9) (  3,  1,  1)
     0.1118E-02    0.1110E-02    0.7542E-03    0.5485E-03    0.4139E-03
  (  3,  1,  1) (  3,  1,  1) (  3,  1,  2) (  3,  1,  1) (  3,  1,  1)
     0.2822E-03    0.2602E-03    0.1877E-03    0.1336E-03    0.9901E-04
  (  3,  1,  1) (  3,  1,  2) (  3,  1,  1) (  3,  1,  1) (  3,  1,  1)
     0.6570E-04    0.6531E-04    0.4431E-04    0.3155E-04    0.2473E-04
  (  3,  1,  1) (  3,  1,  1) (  3,  1,  2) (  3,  1,  1) (  3,  1,  1)
     0.1664E-04    0.1517E-04    0.1106E-04    0.6626E-05
  (  3,  1,  1) (  3,  1,  2) (  3,  1,  2) (  3,  1,  1)


 OUTPUT CONTROL FOR STRESS PERIOD   13   TIME STEP    1
    SAVE HEAD FOR ALL LAYERS

 HEAD WILL BE SAVED ON UNIT   21 AT END OF TIME STEP    1, STRESS PERIOD   13
 
 SOLVING FOR HEAD 
    42 ITERATIONS FOR TIME STEP   2 IN STRESS PERIOD   13

 MAXIMUM HEAD CHANGE FOR EACH ITERATION:

    HEAD CHANGE   HEAD CHANGE   HEAD CHANGE   HEAD CHANGE   HEAD CHANGE
  LAYER,ROW,COL LAYER,ROW,COL LAYER,ROW,COL LAYER,ROW,COL LAYER,ROW,COL
 ----------------------------------------------------------------------
      1.562         3.325         2.992        -1.390        -3.285    
  (  3,  1,  6) (  3,  2, 10) (  3,  1,  1) (  3,  2, 10) (  3,  1,  1)
    -0.2329       -0.6146        -1.505        0.2805        0.3321E-01
  (  3,  1, 10) (  3,  1,  1) (  3,  1, 10) (  3, 10,  1) (  2, 10,  1)
    -0.6793E-01   -0.7496E-02   -0.4043E-02   -0.1817E-02   -0.2538E-02
  (  2,  8,  1) (  2,  1,  2) (  3,  3,  7) (  3,  1,  4) (  3,  3,  7)
     0.1244E-02    0.8119E-03    0.2497E-02    0.1395E-02    0.3000E-02
  (  3,  6,  1) (  3, 10, 10) (  3,  2, 10) (  3, 10, 10) (  3,  2, 10)
     0.1565E-02    0.2817E-02    0.2569E-02    0.1964E-02    0.1454E-02
  (  3,  1,  8) (  3,  1, 10) (  3,  1,  8) (  3,  1,  8) (  3,  1,  8)
     0.9279E-03    0.9128E-03    0.6670E-03    0.4591E-03    0.3389E-03
  (  3,  1,  8) (  3,  1,  8) (  3,  1,  8) (  3,  1,  8) (  3,  1,  8)
     0.2148E-03    0.2214E-03    0.1524E-03    0.1082E-03    0.8010E-04
  (  3,  1,  8) (  3,  1,  8) (  3,  1,  8) (  3,  1,  8) (  3,  1,  8)
     0.5193E-04    0.5097E-04    0.3709E-04    0.2527E-04    0.1842E-04
  (  3,  1,  8) (  3,  1,  8) (  3,  1,  8) (  3,  1,  8) (  3,  1,  3)
     0.1230E-04    0.9601E-05
  (  3,  1,  3) (  3,  1,  8)


 OUTPUT CONTROL FOR STRESS PERIOD   13   TIME STEP    2
    SAVE HEAD FOR ALL LAYERS

 HEAD WILL BE SAVED ON UNIT   21 AT END OF TIME STEP    2, STRESS PERIOD   13
 
 SOLVING FOR HEAD 
    40 ITERATIONS FOR TIME STEP   3 IN STRESS PERIOD   13

 MAXIMUM HEAD CHANGE FOR EACH ITERATION:

    HEAD CHANGE   HEAD CHANGE   HEAD CHANGE   HEAD CHANGE   HEAD CHANGE
  LAYER,ROW,COL LAYER,ROW,COL LAYER,ROW,COL LAYER,ROW,COL LAYER,ROW,COL
 ----------------------------------------------------------------------
      1.365         2.424         2.636        -1.118        -3.357    
  (  3,  1, 10) (  3,  1,  8) (  3,  1,  1) (  3,  1,  9) (  3,  1,  1)
     0.1895       -0.4392        -1.170        0.5301        0.4562E-01
  (  2,  5,  1) (  3,  1,  1) (  3,  1, 10) (  3, 10,  1) (  2, 10, 10)
    -0.5385E-01   -0.1106E-01   -0.6262E-02   -0.2719E-02   -0.2052E-02
  (  2,  7,  1) (  2,  1,  2) (  3,  3,  6) (  3,  3,  5) (  3,  2,  7)
     0.2099E-02    0.1649E-02    0.1930E-02    0.2571E-02    0.3571E-02
  (  3,  1, 10) (  3,  7,  5) (  3,  1, 10) (  3,  7,  5) (  3,  1, 10)
     0.2195E-02    0.2615E-02    0.1794E-02    0.1171E-02    0.8468E-03
  (  3,  1,  1) (  3,  2,  3) (  3,  1,  3) (  3,  1,  3) (  3,  1,  3)
     0.4917E-03    0.5593E-03    0.3926E-03    0.2581E-03    0.1876E-03
  (  3,  1,  3) (  3,  2,  3) (  3,  1,  3) (  3,  1,  3) (  3,  1,  3)
     0.1081E-03    0.1244E-03    0.8713E-04    0.5690E-04    0.4244E-04
  (  3,  1,  3) (  3,  2,  3) (  3,  1,  3) (  3,  1,  3) (  3,  1,  3)
     0.2476E-04    0.2717E-04    0.1911E-04    0.1309E-04    0.8721E-05
  (  3,  1,  3) (  3,  1,  3) (  3,  2,  3) (  3,  1,  3) (  3,  1,  3)


 OUTPUT CONTROL FOR STRESS PERIOD   13   TIME STEP    3
    SAVE HEAD FOR ALL LAYERS

 HEAD WILL BE SAVED ON UNIT   21 AT END OF TIME STEP    3, STRESS PERIOD   13
 
 SOLVING FOR HEAD 
    36 ITERATIONS FOR TIME STEP   4 IN STRESS PERIOD   13

 MAXIMUM HEAD CHANGE FOR EACH ITERATION:

    HEAD CHANGE   HEAD CHANGE   HEAD CHANGE   HEAD CHANGE   HEAD CHANGE
  LAYER,ROW,COL LAYER,ROW,COL LAYER,ROW,COL LAYER,ROW,COL LAYER,ROW,COL
 ----------------------------------------------------------------------
     0.8994         1.889         1.836       -0.9349        -3.217    
  (  3,  3, 10) (  3,  1,  9) (  3,  1,  1) (  3,  1, 10) (  3,  1,  1)
     0.2542        0.1014       -0.3093E-01   -0.1913E-01   -0.1492E-01
  (  3, 10, 10) (  3,  9,  6) (  3,  2,  7) (  3,  3,  7) (  3,  3,  7)
    -0.5868E-02   -0.9068E-02   -0.3665E-02   -0.3094E-02    0.2711E-02
  (  3,  1, 10) (  3,  3,  7) (  3,  3,  7) (  3,  3,  7) (  3,  1,  1)
     0.1618E-02    0.3953E-02    0.3198E-02    0.2155E-02    0.1511E-02
  (  3,  7,  1) (  3,  1, 10) (  3,  1, 10) (  3,  1,  1) (  3,  1,  1)
     0.8737E-03    0.9746E-03    0.7402E-03    0.4342E-03    0.3155E-03
  (  3,  1,  1) (  3,  1, 10) (  3,  1,  1) (  3,  1,  1) (  3,  1,  1)
     0.1780E-03    0.2153E-03    0.1426E-03    0.9510E-04    0.6582E-04
  (  3,  1, 10) (  3,  1,  1) (  3,  1, 10) (  3,  1,  1) (  3,  1,  1)
     0.4026E-04    0.4228E-04    0.3263E-04    0.1981E-04    0.1424E-04
  (  3,  1,  1) (  3,  1, 10) (  3,  1,  1) (  3,  1, 10) (  3,  1,  1)
     0.8612E-05
  (  3,  1,  1)


 OUTPUT CONTROL FOR STRESS PERIOD   13   TIME STEP    4
    SAVE HEAD FOR ALL LAYERS

 HEAD WILL BE SAVED ON UNIT   21 AT END OF TIME STEP    4, STRESS PERIOD   13
 
 SOLVING FOR HEAD 
    33 ITERATIONS FOR TIME STEP   5 IN STRESS PERIOD   13

 MAXIMUM HEAD CHANGE FOR EACH ITERATION:

    HEAD CHANGE   HEAD CHANGE   HEAD CHANGE   HEAD CHANGE   HEAD CHANGE
  LAYER,ROW,COL LAYER,ROW,COL LAYER,ROW,COL LAYER,ROW,COL LAYER,ROW,COL
 ----------------------------------------------------------------------
     0.5811         1.453         1.229        -1.095        -2.777    
  (  3,  1,  6) (  3,  1, 10) (  3,  1,  1) (  3,  1, 10) (  3,  1,  1)
     0.7639        0.4534        0.1315        0.6815E-01   -0.4581E-01
  (  3, 10,  1) (  3,  9,  3) (  2,  1,  8) (  2, 10,  1) (  2, 10, 10)
     0.7373E-01    0.1285E-01   -0.7291E-02   -0.3888E-02   -0.2587E-02
  (  2,  6,  1) (  2,  1,  2) (  3,  8,  5) (  3,  8,  5) (  3,  9,  4)
    -0.2313E-02   -0.1796E-02   -0.1357E-02   -0.7390E-03   -0.4887E-03
  (  2,  6,  1) (  3,  9,  4) (  3,  8,  5) (  3,  8,  5) (  3,  8,  5)
    -0.2001E-03   -0.3341E-03   -0.2594E-03   -0.1422E-03   -0.9471E-04
  (  3,  8,  5) (  3,  9,  3) (  3,  8,  5) (  3,  8,  5) (  3,  8,  5)
    -0.4031E-04   -0.6460E-04   -0.5056E-04   -0.2846E-04    0.2371E-04
  (  3,  8,  5) (  3,  8,  5) (  3,  8,  5) (  3,  8,  5) (  3,  1, 10)
     0.1635E-04    0.1398E-04    0.7260E-05
  (  3,  1, 10) (  3,  1, 10) (  3,  1, 10)


 OUTPUT CONTROL FOR STRESS PERIOD   13   TIME STEP    5
    SAVE HEAD FOR ALL LAYERS

 HEAD WILL BE SAVED ON UNIT   21 AT END OF TIME STEP    5, STRESS PERIOD   13
 
 SOLVING FOR HEAD 
    32 ITERATIONS FOR TIME STEP   6 IN STRESS PERIOD   13

 MAXIMUM HEAD CHANGE FOR EACH ITERATION:

    HEAD CHANGE   HEAD CHANGE   HEAD CHANGE   HEAD CHANGE   HEAD CHANGE
  LAYER,ROW,COL LAYER,ROW,COL LAYER,ROW,COL LAYER,ROW,COL LAYER,ROW,COL
 ----------------------------------------------------------------------
     0.4878        0.8141        0.5002        -1.161        -1.264    
  (  3,  1,  1) (  3,  1, 10) (  3,  3,  3) (  3,  1, 10) (  3,  1,  1)
     0.5147        0.3096        0.8418E-01    0.2786E-01   -0.2656E-01
  (  3,  1, 10) (  3,  2,  2) (  2,  1,  9) (  2, 10,  1) (  2, 10, 10)
     0.2649E-01   -0.1214E-01   -0.9995E-02   -0.5103E-02   -0.3130E-02
  (  2,  7,  1) (  3,  2,  7) (  3,  3,  6) (  3,  3,  6) (  3,  3,  6)
    -0.2629E-02   -0.2086E-02   -0.1776E-02   -0.9032E-03   -0.5744E-03
  (  2,  7,  1) (  3,  3,  6) (  3,  3,  6) (  3,  3,  6) (  3,  3,  6)
    -0.4131E-03   -0.3789E-03   -0.3183E-03   -0.1689E-03   -0.1056E-03
  (  2,  8,  1) (  3,  3,  6) (  3,  3,  6) (  3,  3,  6) (  3,  3,  6)
    -0.4340E-04   -0.7093E-04   -0.5989E-04   -0.3188E-04   -0.2108E-04
  (  2,  8,  1) (  3,  3,  6) (  3,  3,  6) (  3,  3,  6) (  3,  3,  6)
    -0.1181E-04   -0.4313E-05
  (  2,  8,  1) (  3,  3,  6)


 OUTPUT CONTROL FOR STRESS PERIOD   13   TIME STEP    6
    PRINT BUDGET
    PRINT HEAD FOR ALL LAYERS
    SAVE HEAD FOR ALL LAYERS
    SAVE DRAWDOWN FOR ALL LAYERS
1
              HEAD IN LAYER   1 AT END OF TIME STEP   6 IN STRESS PERIOD   13
  ---------------------------------------------------------------------------

           1       2       3       4       5       6       7       8       9      10
 ...................................................................................
   1    21.28   20.93   20.27   19.85   19.65   19.64   19.85   20.26   20.93   21.28
   2    20.26   19.75   19.33   19.03   18.88   18.88   19.03   19.32   19.75   20.25
   3    18.78   18.29   17.92   17.67   17.54   17.54   17.66   17.91   18.27   18.77
   4    16.77   16.33   16.03   15.84   15.75   15.75   15.84   16.03   16.32   16.76
   5    13.91   13.82   13.72   13.64   13.59   13.59   13.63   13.72   13.82   13.90
   6    11.38   11.35   11.31   11.28   11.25   11.25   11.27   11.31   11.35   11.37
   7     8.92    8.90    8.87    8.83    8.81    8.81    8.83    8.86    8.90    8.92
   8     6.53    6.48    6.39    6.30    6.24    6.24    6.29    6.39    6.47    6.53
   9     4.32    4.16    3.88    3.56    3.43    3.42    3.56    3.88    4.16    4.32
  10     2.73    2.34    1.48    0.00    0.00    0.00    0.00    1.48    2.33    2.73
1
              HEAD IN LAYER   2 AT END OF TIME STEP   6 IN STRESS PERIOD   13
  ---------------------------------------------------------------------------

           1       2       3       4       5       6       7       8       9      10
 ...................................................................................
   1    -0.28   -0.26   -0.26   -0.26   -0.27   -0.29   -0.31   -0.33   -0.36   -0.40
   2    -0.41    0.82    0.57    0.09   -0.40   -0.77   -0.73   -0.40   -0.10   -0.59
   3    -0.58    0.21   -0.24   -1.05   -2.20   -3.76   -3.37   -2.04   -1.13   -0.81
   4    -0.80   -0.22   -0.58   -1.17   -1.92   -2.77   -2.62   -1.91   -1.31   -1.04
   5    -1.04   -0.62   -0.76   -1.03   -1.32   -1.54   -1.56   -1.43   -1.27   -1.26
   6    -1.30   -1.00   -1.05   -1.17   -1.28   -1.37   -1.40   -1.39   -1.37   -1.49
   7    -1.57   -1.50   -1.54   -1.60   -1.66   -1.70   -1.72   -1.71   -1.70   -1.72
   8    -1.84   -2.14   -2.24   -2.31   -2.36   -2.38   -2.37   -2.33   -2.25   -1.96
   9    -2.10   -2.86   -3.10   -3.26   -3.34   -3.35   -3.30   -3.15   -2.93   -2.18
  10    -2.34   -2.40   -2.44   -2.48   -2.50   -2.50   -2.49   -2.47   -2.43   -2.39
1
              HEAD IN LAYER   3 AT END OF TIME STEP   6 IN STRESS PERIOD   13
  ---------------------------------------------------------------------------

           1       2       3       4       5       6       7       8       9      10
 ...................................................................................
   1   -17.27  -17.43  -17.74  -18.15  -18.57  -18.92  -19.07  -19.06  -18.98  -18.92
   2   -17.38  -17.63  -18.13  -18.85  -19.71  -20.48  -20.55  -20.14  -19.73  -19.50
   3   -17.23  -17.61  -18.43  -19.82  -22.04  -25.64  -24.78  -22.07  -20.60  -19.95
   4   -16.29  -16.60  -17.24  -18.24  -19.66  -21.52  -21.25  -19.90  -19.02  -18.59
   5   -14.79  -14.96  -15.29  -15.75  -16.28  -16.72  -16.81  -16.62  -16.40  -16.27
   6   -13.22  -13.31  -13.46  -13.66  -13.86  -14.03  -14.12  -14.12  -14.09  -14.07
   7   -11.88  -11.92  -11.99  -12.07  -12.17  -12.25  -12.30  -12.33  -12.34  -12.34
   8   -10.86  -10.88  -10.91  -10.96  -11.00  -11.04  -11.08  -11.10  -11.11  -11.12
   9   -10.19  -10.20  -10.22  -10.24  -10.27  -10.29  -10.31  -10.33  -10.34  -10.34
  10    -9.86   -9.87   -9.88   -9.89   -9.91   -9.93   -9.94   -9.95   -9.96   -9.96

 HEAD WILL BE SAVED ON UNIT   21 AT END OF TIME STEP    6, STRESS PERIOD   13

 DRAWDOWN WILL BE SAVED ON UNIT   22 AT END OF TIME STEP    6, STRESS PERIOD   13
1
  VOLUMETRIC BUDGET FOR ENTIRE MODEL AT END OF TIME STEP    6, STRESS PERIOD  13
  ------------------------------------------------------------------------------

     CUMULATIVE VOLUMES      L**3       RATES FOR THIS TIME STEP      L**3/T
     ------------------                 ------------------------

           IN:                                      IN:
           ---                                      ---
             STORAGE =    21878382.0000               STORAGE =        4196.3594
       CONSTANT HEAD =      106294.4766         CONSTANT HEAD =          59.8241
               WELLS =   131538048.0000                 WELLS =       30000.0000
    INST. IB STORAGE =    31487592.0000      INST. IB STORAGE =        5459.4092
    DELAY IB STORAGE =    67862456.0000      DELAY IB STORAGE =       16392.3867

            TOTAL IN =   252872768.0000              TOTAL IN =       56107.9805

          OUT:                                     OUT:
          ----                                     ----
             STORAGE =           0.0000               STORAGE =           0.0000
       CONSTANT HEAD =   121364728.0000         CONSTANT HEAD =       26108.0488
               WELLS =   131508048.0000                 WELLS =       30000.0000
    INST. IB STORAGE =           0.0000      INST. IB STORAGE =           0.0000
    DELAY IB STORAGE =           0.0000      DELAY IB STORAGE =           0.0000

           TOTAL OUT =   252872768.0000             TOTAL OUT =       56108.0469

            IN - OUT =           0.0000              IN - OUT =      -6.6406E-02

 PERCENT DISCREPANCY =           0.00     PERCENT DISCREPANCY =          -0.00






         TIME SUMMARY AT END OF TIME STEP    6 IN STRESS PERIOD   13
                    SECONDS     MINUTES      HOURS       DAYS        YEARS
                    -----------------------------------------------------------
   TIME STEP LENGTH 9.18681E+06 1.53113E+05  2551.9      106.33     0.29111    
 STRESS PERIOD TIME 3.15619E+07 5.26032E+05  8767.2      365.30      1.0001    
         TOTAL TIME 3.78830E+08 6.31383E+06 1.05230E+05  4384.6      12.004    
1

                               VOLUMETRIC BUDGET FOR SYSTEMS OF DELAY INTERBEDS
                                          AT END OF TIME STEP  6 IN STRESS PERIOD 13

          |   C U M U L A T I V E   V O L U M E S   L**3           | R A T E S   F O R  T H I S  T I M E  S T E P   L**3/T  |
   SYSTEM |    CHANGE IN     BOUNDARY                    PERCENT   |    CHANGE IN     BOUNDARY                    PERCENT   |
   NUMBER |     STORAGE        FLOW           SUM      DISCREPANCY |     STORAGE        FLOW           SUM      DISCREPANCY |
  --------|--------------------------------------------------------|--------------------------------------------------------|
      1     54274.        -54274.        0.78125E-02    0.14395E-04     11.129        -11.129        0.38147E-05    0.34278E-04
      2    0.67808E+08   -0.67808E+08     8.0000        0.11798E-04     16381.        -16381.       -0.39062E-02   -0.23846E-04
  --------|--------------------------------------------------------|--------------------------------------------------------|
 TOTALS:    0.67862E+08   -0.67862E+08     8.0000        0.11789E-04     16392.        -16392.       -0.39062E-02   -0.23830E-04
1
                            STRESS PERIOD NO.   14, LENGTH =   365.3000    
                            -----------------------------------------------

                              NUMBER OF TIME STEPS =     6

                               MULTIPLIER FOR DELT =     1.300

                            INITIAL TIME STEP SIZE =   28.63744    

 REUSING NON-PARAMETER WELLS FROM LAST STRESS PERIOD

     14 WELLS
 
 SOLVING FOR HEAD 

    44 ITERATIONS FOR TIME STEP   1 IN STRESS PERIOD   14

 MAXIMUM HEAD CHANGE FOR EACH ITERATION:

    HEAD CHANGE   HEAD CHANGE   HEAD CHANGE   HEAD CHANGE   HEAD CHANGE
  LAYER,ROW,COL LAYER,ROW,COL LAYER,ROW,COL LAYER,ROW,COL LAYER,ROW,COL
 ----------------------------------------------------------------------
      2.148         3.945         2.797        -1.566        -3.060    
  (  3,  1,  1) (  3,  1,  7) (  3,  3,  2) (  3,  1,  2) (  3,  1,  1)
    -0.3130       -0.7483        -1.660        -1.149        0.8190    
  (  3,  1, 10) (  3,  1,  1) (  3,  1, 10) (  3,  2,  1) (  3,  1,  1)
    -0.8084E-01   -0.7387E-02   -0.5683E-02   -0.3846E-02   -0.2077E-02
  (  2,  7,  1) (  3,  1, 10) (  3,  2,  6) (  3,  3,  6) (  3,  2,  1)
    -0.1828E-02    0.6978E-03   -0.8029E-03    0.1453E-02    0.7579E-03
  (  3,  1,  9) (  3,  7,  5) (  3,  4,  5) (  3,  7, 10) (  3, 10, 10)
     0.1368E-02    0.1399E-02    0.1429E-02    0.2731E-02    0.1598E-02
  (  3,  7, 10) (  3,  2,  1) (  3, 10,  4) (  3,  1, 10) (  3,  2,  1)
     0.1075E-02    0.1084E-02    0.7273E-03    0.5297E-03    0.3913E-03
  (  3,  1, 10) (  3,  2,  2) (  3,  2,  3) (  3,  1,  1) (  3,  1,  1)
     0.2686E-03    0.2605E-03    0.1816E-03    0.1249E-03    0.9530E-04
  (  3,  1,  1) (  3,  2,  2) (  3,  1,  1) (  3,  1,  1) (  3,  1,  1)
     0.6222E-04    0.6254E-04    0.4242E-04    0.3087E-04    0.2317E-04
  (  3,  1, 10) (  3,  2,  2) (  3,  3,  3) (  3,  1,  1) (  3,  1,  1)
     0.1567E-04    0.1513E-04    0.1068E-04    0.4816E-05
  (  3,  1,  1) (  3,  2,  2) (  3,  1,  1) (  3,  1,  1)


 OUTPUT CONTROL FOR STRESS PERIOD   14   TIME STEP    1
    SAVE HEAD FOR ALL LAYERS

 HEAD WILL BE SAVED ON UNIT   21 AT END OF TIME STEP    1, STRESS PERIOD   14
 
 SOLVING FOR HEAD 
    42 ITERATIONS FOR TIME STEP   2 IN STRESS PERIOD   14

 MAXIMUM HEAD CHANGE FOR EACH ITERATION:

    HEAD CHANGE   HEAD CHANGE   HEAD CHANGE   HEAD CHANGE   HEAD CHANGE
  LAYER,ROW,COL LAYER,ROW,COL LAYER,ROW,COL LAYER,ROW,COL LAYER,ROW,COL
 ----------------------------------------------------------------------
      2.046         2.796         2.798        -1.282        -3.140    
  (  3,  1, 10) (  3,  1,  6) (  3,  2,  1) (  3,  1,  7) (  3,  1,  1)
    -0.2362       -0.6056        -1.485        0.2778        0.3239E-01
  (  3,  1, 10) (  3,  1,  1) (  3,  1, 10) (  3, 10,  1) (  2, 10,  1)
    -0.6687E-01   -0.8895E-02   -0.2713E-02   -0.1955E-02   -0.2003E-02
  (  2,  7,  1) (  2,  1,  2) (  3,  3,  6) (  3,  3,  7) (  3,  3,  6)
     0.1423E-02    0.8924E-03    0.2286E-02    0.1479E-02    0.2676E-02
  (  3, 10,  1) (  3, 10,  3) (  3,  5,  2) (  3,  1, 10) (  3,  4,  1)
     0.1773E-02    0.2751E-02    0.2588E-02    0.2084E-02    0.1485E-02
  (  3,  1, 10) (  3,  2,  2) (  3,  1,  1) (  3,  1, 10) (  3,  1, 10)
     0.1046E-02    0.9603E-03    0.7127E-03    0.4647E-03    0.3683E-03
  (  3,  1, 10) (  3,  1,  1) (  3,  1, 10) (  3,  1, 10) (  3,  1, 10)
     0.2282E-03    0.2347E-03    0.1580E-03    0.1173E-03    0.8030E-04
  (  3,  1,  1) (  3,  1, 10) (  3,  1,  1) (  3,  1, 10) (  3,  1,  1)
     0.5807E-04    0.5221E-04    0.3943E-04    0.2599E-04    0.2021E-04
  (  3,  1, 10) (  3,  1,  1) (  3,  1, 10) (  3,  1, 10) (  3,  1, 10)
     0.1260E-04    0.8282E-05
  (  3,  1,  1) (  3,  1,  1)


 OUTPUT CONTROL FOR STRESS PERIOD   14   TIME STEP    2
    SAVE HEAD FOR ALL LAYERS

 HEAD WILL BE SAVED ON UNIT   21 AT END OF TIME STEP    2, STRESS PERIOD   14
 
 SOLVING FOR HEAD 
    40 ITERATIONS FOR TIME STEP   3 IN STRESS PERIOD   14

 MAXIMUM HEAD CHANGE FOR EACH ITERATION:

    HEAD CHANGE   HEAD CHANGE   HEAD CHANGE   HEAD CHANGE   HEAD CHANGE
  LAYER,ROW,COL LAYER,ROW,COL LAYER,ROW,COL LAYER,ROW,COL LAYER,ROW,COL
 ----------------------------------------------------------------------
      1.365         2.275         2.540        -1.096        -3.328    
  (  3,  1, 10) (  3,  1,  8) (  3,  1,  1) (  3,  1,  3) (  3,  1,  1)
     0.1930       -0.4147        -1.126        0.5227        0.4306E-01
  (  2,  4,  1) (  3,  1,  1) (  3,  1, 10) (  3, 10,  1) (  2, 10, 10)
    -0.5186E-01   -0.1272E-01   -0.5910E-02   -0.2774E-02   -0.2076E-02
  (  2,  7,  1) (  2,  1,  2) (  3,  3,  8) (  3,  4,  9) (  3,  3,  7)
     0.2448E-02    0.1634E-02    0.1923E-02    0.2590E-02    0.3416E-02
  (  3,  1, 10) (  3,  7,  1) (  3,  1,  6) (  3,  7,  4) (  3,  1,  6)
     0.2023E-02    0.2385E-02    0.1619E-02    0.1048E-02    0.7448E-03
  (  3,  1,  1) (  3,  2,  8) (  3,  2,  8) (  3,  1, 10) (  3,  1,  7)
     0.4613E-03    0.5084E-03    0.3535E-03    0.2249E-03    0.1622E-03
  (  3,  1, 10) (  3,  2,  8) (  3,  3,  9) (  3,  3,  9) (  3,  1, 10)
     0.9516E-04    0.1116E-03    0.7655E-04    0.5020E-04    0.3566E-04
  (  3,  1,  1) (  3,  2,  9) (  3,  3,  9) (  3,  3,  9) (  3,  1, 10)
     0.2091E-04    0.2380E-04    0.1740E-04    0.1105E-04    0.7054E-05
  (  3,  1, 10) (  3,  3,  9) (  3,  3,  9) (  3,  3,  9) (  3,  1, 10)


 OUTPUT CONTROL FOR STRESS PERIOD   14   TIME STEP    3
    SAVE HEAD FOR ALL LAYERS

 HEAD WILL BE SAVED ON UNIT   21 AT END OF TIME STEP    3, STRESS PERIOD   14
 
 SOLVING FOR HEAD 
    36 ITERATIONS FOR TIME STEP   4 IN STRESS PERIOD   14

 MAXIMUM HEAD CHANGE FOR EACH ITERATION:

    HEAD CHANGE   HEAD CHANGE   HEAD CHANGE   HEAD CHANGE   HEAD CHANGE
  LAYER,ROW,COL LAYER,ROW,COL LAYER,ROW,COL LAYER,ROW,COL LAYER,ROW,COL
 ----------------------------------------------------------------------
      1.041         1.775         1.921        -1.007        -3.101    
  (  3,  1, 10) (  3,  1,  8) (  3,  1,  1) (  3,  1,  6) (  3,  1,  1)
     0.2194        0.8318E-01   -0.2958E-01   -0.1832E-01   -0.1382E-01
  (  3, 10, 10) (  3,  9,  6) (  3,  3,  7) (  3,  3,  7) (  3,  3,  7)
    -0.5934E-02   -0.8527E-02   -0.3356E-02   -0.2791E-02    0.2541E-02
  (  3,  1, 10) (  3,  3,  7) (  3,  3,  7) (  3,  3,  7) (  3,  1,  1)
     0.1837E-02    0.3971E-02    0.3243E-02    0.2042E-02    0.1473E-02
  (  3, 10,  1) (  3,  1, 10) (  3,  1, 10) (  3,  1, 10) (  3,  1,  3)
     0.7915E-03    0.9974E-03    0.6714E-03    0.4336E-03    0.3048E-03
  (  3,  1, 10) (  3,  1, 10) (  3,  1,  3) (  3,  1, 10) (  3,  1, 10)
     0.1802E-03    0.1940E-03    0.1443E-03    0.8907E-04    0.6398E-04
  (  3,  1, 10) (  3,  1,  1) (  3,  1, 10) (  3,  1, 10) (  3,  1,  3)
     0.3572E-04    0.4241E-04    0.2800E-04    0.2066E-04    0.1354E-04
  (  3,  1, 10) (  3,  1, 10) (  3,  1,  3) (  3,  1, 10) (  3,  1, 10)
     0.7256E-05
  (  3,  1, 10)


 OUTPUT CONTROL FOR STRESS PERIOD   14   TIME STEP    4
    SAVE HEAD FOR ALL LAYERS

 HEAD WILL BE SAVED ON UNIT   21 AT END OF TIME STEP    4, STRESS PERIOD   14
 
 SOLVING FOR HEAD 
    31 ITERATIONS FOR TIME STEP   5 IN STRESS PERIOD   14

 MAXIMUM HEAD CHANGE FOR EACH ITERATION:

    HEAD CHANGE   HEAD CHANGE   HEAD CHANGE   HEAD CHANGE   HEAD CHANGE
  LAYER,ROW,COL LAYER,ROW,COL LAYER,ROW,COL LAYER,ROW,COL LAYER,ROW,COL
 ----------------------------------------------------------------------
     0.6639         1.426         1.079        -1.077        -2.693    
  (  3,  1,  1) (  3,  1, 10) (  3,  1,  1) (  3,  1, 10) (  3,  1,  1)
     0.7416        0.4401        0.1300        0.6746E-01   -0.4534E-01
  (  3, 10,  1) (  3,  9,  3) (  2,  1,  8) (  2, 10,  1) (  2, 10, 10)
     0.7376E-01    0.1276E-01   -0.6979E-02   -0.3745E-02   -0.2468E-02
  (  2,  6,  1) (  2,  1,  2) (  3,  8,  5) (  3,  9,  4) (  3,  9,  4)
    -0.2268E-02   -0.1720E-02   -0.1303E-02   -0.7046E-03   -0.4715E-03
  (  2,  6,  1) (  3,  9,  4) (  3,  9,  4) (  3,  8,  5) (  3,  9,  4)
    -0.1915E-03   -0.3222E-03   -0.2476E-03   -0.1347E-03   -0.9044E-04
  (  3,  9,  1) (  3,  9,  4) (  3,  8,  5) (  3,  8,  5) (  3,  8,  5)
    -0.3755E-04   -0.6168E-04   -0.4764E-04   -0.2664E-04   -0.1780E-04
  (  3,  8,  5) (  3,  9,  5) (  3,  8,  5) (  3,  8,  5) (  3,  8,  6)
    -0.7789E-05
  (  3,  8,  5)


 OUTPUT CONTROL FOR STRESS PERIOD   14   TIME STEP    5
    SAVE HEAD FOR ALL LAYERS

 HEAD WILL BE SAVED ON UNIT   21 AT END OF TIME STEP    5, STRESS PERIOD   14
 
 SOLVING FOR HEAD 
    32 ITERATIONS FOR TIME STEP   6 IN STRESS PERIOD   14

 MAXIMUM HEAD CHANGE FOR EACH ITERATION:

    HEAD CHANGE   HEAD CHANGE   HEAD CHANGE   HEAD CHANGE   HEAD CHANGE
  LAYER,ROW,COL LAYER,ROW,COL LAYER,ROW,COL LAYER,ROW,COL LAYER,ROW,COL
 ----------------------------------------------------------------------
     0.5044        0.6481        0.4994        -1.138        -1.223    
  (  3,  1, 10) (  3,  1,  4) (  3,  2,  3) (  3,  1, 10) (  3,  1,  1)
     0.5056        0.2980        0.8117E-01    0.2677E-01   -0.2571E-01
  (  3,  1, 10) (  3,  2,  2) (  2,  1,  9) (  2, 10,  1) (  2, 10, 10)
     0.2553E-01   -0.1178E-01   -0.9725E-02   -0.4943E-02   -0.3040E-02
  (  2,  7,  1) (  3,  2,  6) (  3,  3,  6) (  3,  3,  6) (  3,  3,  6)
    -0.2540E-02   -0.2022E-02   -0.1718E-02   -0.8747E-03   -0.5522E-03
  (  2,  7,  1) (  3,  3,  6) (  3,  3,  6) (  3,  3,  6) (  3,  3,  6)
    -0.4070E-03   -0.3663E-03   -0.3083E-03   -0.1611E-03   -0.1020E-03
  (  2,  8,  1) (  3,  3,  6) (  3,  3,  6) (  3,  3,  6) (  3,  3,  6)
    -0.4279E-04   -0.6692E-04   -0.5663E-04   -0.3155E-04   -0.1967E-04
  (  2,  8,  1) (  3,  3,  6) (  3,  3,  6) (  3,  3,  6) (  3,  3,  6)
    -0.1141E-04   -0.4092E-05
  (  2,  8,  1) (  3,  2,  7)


 OUTPUT CONTROL FOR STRESS PERIOD   14   TIME STEP    6
    PRINT BUDGET
    PRINT HEAD FOR ALL LAYERS
    SAVE HEAD FOR ALL LAYERS
    SAVE DRAWDOWN FOR ALL LAYERS
1
              HEAD IN LAYER   1 AT END OF TIME STEP   6 IN STRESS PERIOD   14
  ---------------------------------------------------------------------------

           1       2       3       4       5       6       7       8       9      10
 ...................................................................................
   1    21.18   20.83   20.16   19.74   19.54   19.54   19.74   20.16   20.82   21.17
   2    20.15   19.65   19.22   18.93   18.77   18.77   18.92   19.22   19.64   20.14
   3    18.68   18.18   17.81   17.57   17.44   17.44   17.56   17.80   18.17   18.67
   4    16.67   16.24   15.94   15.75   15.65   15.65   15.74   15.93   16.23   16.66
   5    13.82   13.73   13.63   13.55   13.50   13.50   13.55   13.63   13.73   13.81
   6    11.30   11.27   11.23   11.20   11.18   11.17   11.19   11.23   11.27   11.29
   7     8.86    8.84    8.80    8.76    8.74    8.74    8.76    8.80    8.83    8.85
   8     6.48    6.43    6.34    6.25    6.19    6.19    6.24    6.34    6.42    6.48
   9     4.29    4.13    3.85    3.53    3.40    3.40    3.53    3.85    4.13    4.29
  10     2.71    2.32    1.46    0.00    0.00    0.00    0.00    1.46    2.31    2.71
1
              HEAD IN LAYER   2 AT END OF TIME STEP   6 IN STRESS PERIOD   14
  ---------------------------------------------------------------------------

           1       2       3       4       5       6       7       8       9      10
 ...................................................................................
   1    -0.62   -0.60   -0.60   -0.60   -0.62   -0.63   -0.65   -0.68   -0.71   -0.74
   2    -0.74    0.44    0.18   -0.30   -0.79   -1.16   -1.12   -0.79   -0.48   -0.93
   3    -0.91   -0.16   -0.61   -1.42   -2.58   -4.14   -3.75   -2.42   -1.50   -1.14
   4    -1.12   -0.57   -0.93   -1.53   -2.28   -3.12   -2.98   -2.26   -1.67   -1.36
   5    -1.35   -0.94   -1.09   -1.36   -1.64   -1.87   -1.89   -1.76   -1.60   -1.57
   6    -1.60   -1.30   -1.35   -1.47   -1.58   -1.67   -1.70   -1.69   -1.67   -1.79
   7    -1.86   -1.77   -1.81   -1.87   -1.93   -1.97   -1.99   -1.98   -1.98   -2.02
   8    -2.12   -2.39   -2.48   -2.55   -2.60   -2.62   -2.61   -2.58   -2.50   -2.24
   9    -2.38   -3.09   -3.32   -3.48   -3.56   -3.57   -3.52   -3.38   -3.16   -2.46
  10    -2.61   -2.66   -2.71   -2.74   -2.76   -2.76   -2.75   -2.73   -2.70   -2.65
1
              HEAD IN LAYER   3 AT END OF TIME STEP   6 IN STRESS PERIOD   14
  ---------------------------------------------------------------------------

           1       2       3       4       5       6       7       8       9      10
 ...................................................................................
   1   -17.94  -18.10  -18.41  -18.82  -19.25  -19.59  -19.75  -19.74  -19.67  -19.61
   2   -18.03  -18.29  -18.79  -19.52  -20.38  -21.15  -21.22  -20.81  -20.40  -20.17
   3   -17.86  -18.25  -19.07  -20.46  -22.68  -26.29  -25.43  -22.72  -21.25  -20.60
   4   -16.89  -17.20  -17.84  -18.85  -20.28  -22.14  -21.87  -20.52  -19.64  -19.21
   5   -15.35  -15.52  -15.85  -16.32  -16.85  -17.29  -17.38  -17.19  -16.97  -16.84
   6   -13.74  -13.82  -13.97  -14.17  -14.38  -14.55  -14.64  -14.65  -14.62  -14.59
   7   -12.35  -12.39  -12.46  -12.55  -12.64  -12.72  -12.78  -12.81  -12.82  -12.82
   8   -11.30  -11.32  -11.35  -11.39  -11.44  -11.48  -11.52  -11.54  -11.55  -11.56
   9   -10.60  -10.61  -10.63  -10.66  -10.68  -10.71  -10.73  -10.74  -10.75  -10.75
  10   -10.26  -10.26  -10.28  -10.29  -10.31  -10.32  -10.34  -10.35  -10.36  -10.36

 HEAD WILL BE SAVED ON UNIT   21 AT END OF TIME STEP    6, STRESS PERIOD   14

 DRAWDOWN WILL BE SAVED ON UNIT   22 AT END OF TIME STEP    6, STRESS PERIOD   14
1
  VOLUMETRIC BUDGET FOR ENTIRE MODEL AT END OF TIME STEP    6, STRESS PERIOD  14
  ------------------------------------------------------------------------------

     CUMULATIVE VOLUMES      L**3       RATES FOR THIS TIME STEP      L**3/T
     ------------------                 ------------------------

           IN:                                      IN:
           ---                                      ---
             STORAGE =    23391188.0000               STORAGE =        4104.7646
       CONSTANT HEAD =      129522.4375         CONSTANT HEAD =          66.1052
               WELLS =   142497040.0000                 WELLS =       30000.0000
    INST. IB STORAGE =    33473562.0000      INST. IB STORAGE =        5417.6289
    DELAY IB STORAGE =    73828256.0000      DELAY IB STORAGE =       16294.1543

            TOTAL IN =   273319552.0000              TOTAL IN =       55882.6523

          OUT:                                     OUT:
          ----                                     ----
             STORAGE =           0.0000               STORAGE =           0.0000
       CONSTANT HEAD =   130852536.0000         CONSTANT HEAD =       25882.7422
               WELLS =   142467040.0000                 WELLS =       30000.0000
    INST. IB STORAGE =           0.0000      INST. IB STORAGE =           0.0000
    DELAY IB STORAGE =           0.0000      DELAY IB STORAGE =           0.0000

           TOTAL OUT =   273319584.0000             TOTAL OUT =       55882.7422

            IN - OUT =         -32.0000              IN - OUT =      -8.9844E-02

 PERCENT DISCREPANCY =          -0.00     PERCENT DISCREPANCY =          -0.00






         TIME SUMMARY AT END OF TIME STEP    6 IN STRESS PERIOD   14
                    SECONDS     MINUTES      HOURS       DAYS        YEARS
                    -----------------------------------------------------------
   TIME STEP LENGTH 9.18681E+06 1.53113E+05  2551.9      106.33     0.29111    
 STRESS PERIOD TIME 3.15619E+07 5.26032E+05  8767.2      365.30      1.0001    
         TOTAL TIME 4.10391E+08 6.83986E+06 1.13998E+05  4749.9      13.005    
1

                               VOLUMETRIC BUDGET FOR SYSTEMS OF DELAY INTERBEDS
                                          AT END OF TIME STEP  6 IN STRESS PERIOD 14

          |   C U M U L A T I V E   V O L U M E S   L**3           | R A T E S   F O R  T H I S  T I M E  S T E P   L**3/T  |
   SYSTEM |    CHANGE IN     BOUNDARY                    PERCENT   |    CHANGE IN     BOUNDARY                    PERCENT   |
   NUMBER |     STORAGE        FLOW           SUM      DISCREPANCY |     STORAGE        FLOW           SUM      DISCREPANCY |
  --------|--------------------------------------------------------|--------------------------------------------------------|
      1     58276.        -58276.        0.78125E-02    0.13406E-04     10.878        -10.878       -0.19073E-05   -0.17534E-04
      2    0.73770E+08   -0.73770E+08     8.0000        0.10845E-04     16283.        -16283.       -0.58594E-02   -0.35984E-04
  --------|--------------------------------------------------------|--------------------------------------------------------|
 TOTALS:    0.73828E+08   -0.73828E+08     8.0000        0.10836E-04     16294.        -16294.       -0.58594E-02   -0.35960E-04
1
                            STRESS PERIOD NO.   15, LENGTH =   365.3000    
                            -----------------------------------------------

                              NUMBER OF TIME STEPS =     6

                               MULTIPLIER FOR DELT =     1.300

                            INITIAL TIME STEP SIZE =   28.63744    

 REUSING NON-PARAMETER WELLS FROM LAST STRESS PERIOD

     14 WELLS
 
 SOLVING FOR HEAD 

    44 ITERATIONS FOR TIME STEP   1 IN STRESS PERIOD   15

 MAXIMUM HEAD CHANGE FOR EACH ITERATION:

    HEAD CHANGE   HEAD CHANGE   HEAD CHANGE   HEAD CHANGE   HEAD CHANGE
  LAYER,ROW,COL LAYER,ROW,COL LAYER,ROW,COL LAYER,ROW,COL LAYER,ROW,COL
 ----------------------------------------------------------------------
      1.662         4.296         3.355        -1.736        -3.062    
  (  3,  1,  5) (  3,  1, 10) (  3,  1,  1) (  3,  1,  3) (  3,  1,  1)
    -0.2976       -0.7277        -1.611        -1.140        0.8177    
  (  3,  1, 10) (  3,  1,  1) (  3,  1, 10) (  3,  2,  1) (  3,  1,  1)
    -0.7580E-01   -0.7993E-02   -0.5745E-02   -0.3612E-02   -0.2071E-02
  (  2,  7,  1) (  3,  2,  9) (  3,  2,  8) (  3,  1,  2) (  3,  2,  5)
    -0.1812E-02    0.8778E-03   -0.6868E-03    0.1448E-02    0.5529E-03
  (  3,  1,  7) (  3,  9,  1) (  3,  2,  7) (  3,  7,  9) (  3,  5,  8)
     0.1440E-02    0.1376E-02    0.1586E-02    0.2574E-02    0.1611E-02
  (  3,  7, 10) (  3,  1, 10) (  3, 10,  7) (  3,  1,  9) (  3,  1, 10)
     0.1119E-02    0.1059E-02    0.7331E-03    0.5166E-03    0.3900E-03
  (  3,  1, 10) (  3,  2,  2) (  3,  1, 10) (  3,  1, 10) (  3,  1, 10)
     0.2543E-03    0.2558E-03    0.1767E-03    0.1265E-03    0.9333E-04
  (  3,  1, 10) (  3,  2,  2) (  3,  2,  1) (  3,  1, 10) (  3,  1, 10)
     0.6612E-04    0.6082E-04    0.4305E-04    0.2988E-04    0.2336E-04
  (  3,  1, 10) (  3,  2,  2) (  3,  1, 10) (  3,  2,  1) (  3,  1, 10)
     0.1526E-04    0.1483E-04    0.1042E-04    0.3761E-05
  (  3,  1, 10) (  3,  1, 10) (  3,  2,  1) (  3,  2,  1)


 OUTPUT CONTROL FOR STRESS PERIOD   15   TIME STEP    1
    SAVE HEAD FOR ALL LAYERS

 HEAD WILL BE SAVED ON UNIT   21 AT END OF TIME STEP    1, STRESS PERIOD   15
 
 SOLVING FOR HEAD 
    42 ITERATIONS FOR TIME STEP   2 IN STRESS PERIOD   15

 MAXIMUM HEAD CHANGE FOR EACH ITERATION:

    HEAD CHANGE   HEAD CHANGE   HEAD CHANGE   HEAD CHANGE   HEAD CHANGE
  LAYER,ROW,COL LAYER,ROW,COL LAYER,ROW,COL LAYER,ROW,COL LAYER,ROW,COL
 ----------------------------------------------------------------------
      1.507         3.706         2.802        -1.316        -3.222    
  (  3,  1,  4) (  3,  1, 10) (  3,  1,  1) (  3,  1,  2) (  3,  1,  1)
    -0.2400       -0.5870        -1.436        0.2686       -0.3378E-01
  (  3,  1, 10) (  3,  1,  1) (  3,  1, 10) (  3, 10,  1) (  2,  1,  1)
    -0.6380E-01   -0.1023E-01   -0.3257E-02   -0.1943E-02   -0.2033E-02
  (  2,  7,  1) (  2,  1,  2) (  3,  4,  7) (  3,  2,  3) (  3,  3,  7)
     0.1321E-02    0.9678E-03    0.2324E-02    0.1181E-02    0.2765E-02
  (  3, 10,  1) (  3,  9,  7) (  3,  1, 10) (  3, 10,  1) (  3,  1, 10)
     0.1486E-02    0.2721E-02    0.2535E-02    0.1934E-02    0.1437E-02
  (  3,  1,  2) (  3,  2,  1) (  3,  1,  1) (  3,  1,  2) (  3,  1,  2)
     0.8797E-03    0.9649E-03    0.6630E-03    0.4529E-03    0.3303E-03
  (  3,  1,  2) (  3,  2,  4) (  3,  2,  4) (  3,  1,  2) (  3,  1,  2)
     0.2068E-03    0.2261E-03    0.1545E-03    0.1045E-03    0.7719E-04
  (  3,  1,  2) (  3,  2,  4) (  3,  2,  4) (  3,  1,  2) (  3,  2,  4)
     0.4875E-04    0.5199E-04    0.3610E-04    0.2495E-04    0.1811E-04
  (  3,  1,  8) (  3,  2,  4) (  3,  2,  4) (  3,  1,  2) (  3,  1,  2)
     0.1182E-04    0.7552E-05
  (  3,  1,  8) (  3,  1,  8)


 OUTPUT CONTROL FOR STRESS PERIOD   15   TIME STEP    2
    SAVE HEAD FOR ALL LAYERS

 HEAD WILL BE SAVED ON UNIT   21 AT END OF TIME STEP    2, STRESS PERIOD   15
 
 SOLVING FOR HEAD 
    40 ITERATIONS FOR TIME STEP   3 IN STRESS PERIOD   15

 MAXIMUM HEAD CHANGE FOR EACH ITERATION:

    HEAD CHANGE   HEAD CHANGE   HEAD CHANGE   HEAD CHANGE   HEAD CHANGE
  LAYER,ROW,COL LAYER,ROW,COL LAYER,ROW,COL LAYER,ROW,COL LAYER,ROW,COL
 ----------------------------------------------------------------------
      1.154         2.855         2.276        -1.054        -3.150    
  (  3,  1,  5) (  3,  1, 10) (  3,  2,  1) (  3,  1, 10) (  3,  1,  1)
     0.1764       -0.4145        -1.120        0.5140        0.4205E-01
  (  2,  6,  1) (  3,  1,  1) (  3,  1, 10) (  3, 10,  1) (  2, 10, 10)
    -0.5079E-01   -0.1143E-01   -0.5844E-02   -0.2620E-02   -0.2014E-02
  (  2,  7,  1) (  2,  1,  2) (  3,  3,  7) (  3,  4,  6) (  3,  3,  7)
     0.2028E-02    0.1742E-02    0.2058E-02    0.2494E-02    0.3433E-02
  (  3,  1,  3) (  3,  8, 10) (  3,  1, 10) (  3,  7,  2) (  3,  1, 10)
     0.1936E-02    0.2382E-02    0.1594E-02    0.1043E-02    0.7398E-03
  (  3,  1, 10) (  3,  2,  8) (  3,  2,  8) (  3,  1,  9) (  3,  1,  9)
     0.4595E-03    0.5033E-03    0.3534E-03    0.2221E-03    0.1621E-03
  (  3,  1, 10) (  3,  2,  8) (  3,  2,  8) (  3,  2,  9) (  3,  2,  9)
     0.9003E-04    0.1112E-03    0.7493E-04    0.4948E-04    0.3521E-04
  (  3,  1,  9) (  3,  2,  8) (  3,  2,  8) (  3,  2,  8) (  3,  1,  9)
     0.2083E-04    0.2385E-04    0.1706E-04    0.1046E-04    0.5863E-05
  (  3,  1, 10) (  3,  2,  8) (  3,  2,  8) (  3,  4,  5) (  3,  2, 10)


 OUTPUT CONTROL FOR STRESS PERIOD   15   TIME STEP    3
    SAVE HEAD FOR ALL LAYERS

 HEAD WILL BE SAVED ON UNIT   21 AT END OF TIME STEP    3, STRESS PERIOD   15
 
 SOLVING FOR HEAD 
    36 ITERATIONS FOR TIME STEP   4 IN STRESS PERIOD   15

 MAXIMUM HEAD CHANGE FOR EACH ITERATION:

    HEAD CHANGE   HEAD CHANGE   HEAD CHANGE   HEAD CHANGE   HEAD CHANGE
  LAYER,ROW,COL LAYER,ROW,COL LAYER,ROW,COL LAYER,ROW,COL LAYER,ROW,COL
 ----------------------------------------------------------------------
     0.8568         1.967         1.848       -0.9100        -3.121    
  (  3,  1,  6) (  3,  1, 10) (  3,  1,  1) (  3,  2, 10) (  3,  1,  1)
     0.1986        0.7326E-01   -0.2619E-01   -0.1762E-01   -0.1349E-01
  (  3, 10, 10) (  3,  9,  7) (  3,  2,  8) (  3,  2,  7) (  3,  3,  7)
    -0.5387E-02   -0.8097E-02   -0.3148E-02   -0.2613E-02    0.2332E-02
  (  3,  1,  6) (  3,  3,  7) (  3,  3,  7) (  3,  3,  7) (  3,  1,  3)
     0.2029E-02    0.3773E-02    0.3153E-02    0.1969E-02    0.1426E-02
  (  3, 10, 10) (  3,  1,  7) (  3,  1,  5) (  3,  1,  6) (  3,  1,  5)
     0.7320E-03    0.9424E-03    0.6545E-03    0.4197E-03    0.2880E-03
  (  3,  1,  6) (  3,  2,  2) (  3,  1,  1) (  3,  1,  5) (  3,  1,  7)
     0.1601E-03    0.1898E-03    0.1415E-03    0.8428E-04    0.6090E-04
  (  3,  1,  5) (  3,  1,  1) (  3,  1,  5) (  3,  1,  7) (  3,  1,  5)
     0.3304E-04    0.3936E-04    0.2799E-04    0.1812E-04    0.1276E-04
  (  3,  1,  7) (  3,  1,  6) (  3,  1,  6) (  3,  1,  5) (  3,  1,  7)
     0.7403E-05
  (  3,  1,  5)


 OUTPUT CONTROL FOR STRESS PERIOD   15   TIME STEP    4
    SAVE HEAD FOR ALL LAYERS

 HEAD WILL BE SAVED ON UNIT   21 AT END OF TIME STEP    4, STRESS PERIOD   15
 
 SOLVING FOR HEAD 
    31 ITERATIONS FOR TIME STEP   5 IN STRESS PERIOD   15

 MAXIMUM HEAD CHANGE FOR EACH ITERATION:

    HEAD CHANGE   HEAD CHANGE   HEAD CHANGE   HEAD CHANGE   HEAD CHANGE
  LAYER,ROW,COL LAYER,ROW,COL LAYER,ROW,COL LAYER,ROW,COL LAYER,ROW,COL
 ----------------------------------------------------------------------
     0.7271         1.358         1.098        -1.017        -2.718    
  (  3,  1,  1) (  3,  1, 10) (  3,  2,  1) (  3,  1, 10) (  3,  1,  1)
     0.7405        0.4409        0.1331        0.6883E-01   -0.4622E-01
  (  3, 10,  1) (  3,  9,  3) (  2,  1,  8) (  2, 10,  1) (  2, 10, 10)
     0.7478E-01    0.1297E-01   -0.7075E-02   -0.3830E-02   -0.2541E-02
  (  2,  6,  1) (  2,  1,  2) (  3,  9,  6) (  3,  9,  5) (  3,  9,  6)
    -0.2328E-02   -0.1753E-02   -0.1333E-02   -0.7265E-03   -0.4862E-03
  (  2,  6,  1) (  3,  9,  5) (  3,  9,  4) (  3,  9,  6) (  3,  9,  4)
    -0.2117E-03   -0.3290E-03   -0.2527E-03   -0.1404E-03   -0.9240E-04
  (  3, 10, 10) (  3,  9,  5) (  3,  9,  6) (  3,  9,  5) (  3,  9,  6)
    -0.3974E-04   -0.6341E-04   -0.4905E-04   -0.2737E-04   -0.1880E-04
  (  3,  9,  4) (  3,  9,  6) (  3,  9,  4) (  3,  9,  6) (  3,  9,  5)
     0.8456E-05
  (  3,  1, 10)


 OUTPUT CONTROL FOR STRESS PERIOD   15   TIME STEP    5
    SAVE HEAD FOR ALL LAYERS

 HEAD WILL BE SAVED ON UNIT   21 AT END OF TIME STEP    5, STRESS PERIOD   15
 
 SOLVING FOR HEAD 
    32 ITERATIONS FOR TIME STEP   6 IN STRESS PERIOD   15

 MAXIMUM HEAD CHANGE FOR EACH ITERATION:

    HEAD CHANGE   HEAD CHANGE   HEAD CHANGE   HEAD CHANGE   HEAD CHANGE
  LAYER,ROW,COL LAYER,ROW,COL LAYER,ROW,COL LAYER,ROW,COL LAYER,ROW,COL
 ----------------------------------------------------------------------
     0.4335        0.6449        0.4688        -1.087        -1.206    
  (  3,  1, 10) (  3,  2,  9) (  3,  3,  3) (  3,  1, 10) (  3,  1,  1)
     0.4974        0.2955        0.8103E-01    0.2714E-01   -0.2588E-01
  (  3,  1, 10) (  3,  2,  2) (  2,  1,  9) (  2, 10,  1) (  2, 10, 10)
     0.2584E-01   -0.1166E-01   -0.9485E-02   -0.4837E-02   -0.2938E-02
  (  2,  7,  1) (  3,  2,  7) (  3,  3,  6) (  3,  3,  6) (  3,  3,  6)
    -0.2528E-02   -0.1966E-02   -0.1678E-02   -0.8425E-03   -0.5361E-03
  (  2,  7,  1) (  3,  3,  6) (  3,  3,  6) (  3,  3,  6) (  3,  3,  6)
    -0.4029E-03   -0.3532E-03   -0.2956E-03   -0.1551E-03   -0.9748E-04
  (  2,  8,  1) (  3,  3,  6) (  3,  3,  6) (  3,  3,  6) (  3,  3,  6)
    -0.4279E-04   -0.6375E-04   -0.5513E-04   -0.2886E-04   -0.1776E-04
  (  2,  8,  1) (  3,  3,  6) (  3,  3,  6) (  3,  3,  6) (  3,  3,  6)
    -0.1139E-04   -0.4156E-05
  (  2,  8,  1) (  3,  3,  7)


 OUTPUT CONTROL FOR STRESS PERIOD   15   TIME STEP    6
    PRINT BUDGET
    PRINT HEAD FOR ALL LAYERS
    SAVE HEAD FOR ALL LAYERS
    SAVE DRAWDOWN FOR ALL LAYERS
1
              HEAD IN LAYER   1 AT END OF TIME STEP   6 IN STRESS PERIOD   15
  ---------------------------------------------------------------------------

           1       2       3       4       5       6       7       8       9      10
 ...................................................................................
   1    21.07   20.72   20.06   19.64   19.43   19.43   19.63   20.05   20.71   21.06
   2    20.05   19.54   19.12   18.82   18.67   18.67   18.82   19.11   19.54   20.04
   3    18.58   18.08   17.71   17.47   17.34   17.34   17.46   17.70   18.07   18.57
   4    16.58   16.14   15.84   15.65   15.56   15.55   15.64   15.83   16.13   16.57
   5    13.74   13.65   13.55   13.46   13.42   13.42   13.46   13.54   13.64   13.73
   6    11.22   11.20   11.16   11.12   11.10   11.10   11.12   11.15   11.19   11.22
   7     8.79    8.77    8.74    8.70    8.68    8.68    8.70    8.73    8.77    8.79
   8     6.43    6.38    6.29    6.20    6.15    6.15    6.20    6.29    6.37    6.43
   9     4.25    4.10    3.82    3.50    3.37    3.37    3.50    3.81    4.09    4.25
  10     2.69    2.30    1.45    0.00    0.00    0.00    0.00    1.45    2.29    2.68
1
              HEAD IN LAYER   2 AT END OF TIME STEP   6 IN STRESS PERIOD   15
  ---------------------------------------------------------------------------

           1       2       3       4       5       6       7       8       9      10
 ...................................................................................
   1    -0.96   -0.94   -0.94   -0.94   -0.96   -0.97   -0.99   -1.02   -1.04   -1.08
   2    -1.07    0.07   -0.19   -0.67   -1.16   -1.53   -1.50   -1.17   -0.85   -1.26
   3    -1.23   -0.51   -0.98   -1.78   -2.94   -4.51   -4.12   -2.79   -1.87   -1.47
   4    -1.43   -0.91   -1.28   -1.87   -2.63   -3.47   -3.33   -2.61   -2.01   -1.67
   5    -1.66   -1.26   -1.41   -1.68   -1.97   -2.19   -2.22   -2.08   -1.93   -1.88
   6    -1.89   -1.60   -1.65   -1.76   -1.88   -1.96   -2.00   -1.99   -1.97   -2.09
   7    -2.14   -2.04   -2.08   -2.14   -2.20   -2.24   -2.26   -2.26   -2.25   -2.30
   8    -2.40   -2.64   -2.73   -2.80   -2.85   -2.87   -2.86   -2.83   -2.76   -2.52
   9    -2.65   -3.32   -3.55   -3.71   -3.79   -3.80   -3.74   -3.60   -3.39   -2.73
  10    -2.88   -2.93   -2.97   -3.00   -3.02   -3.03   -3.02   -2.99   -2.96   -2.92
1
              HEAD IN LAYER   3 AT END OF TIME STEP   6 IN STRESS PERIOD   15
  ---------------------------------------------------------------------------

           1       2       3       4       5       6       7       8       9      10
 ...................................................................................
   1   -18.59  -18.76  -19.07  -19.48  -19.91  -20.26  -20.41  -20.41  -20.33  -20.27
   2   -18.68  -18.93  -19.44  -20.17  -21.03  -21.80  -21.88  -21.47  -21.06  -20.83
   3   -18.49  -18.87  -19.70  -21.09  -23.32  -26.92  -26.06  -23.36  -21.89  -21.24
   4   -17.48  -17.79  -18.44  -19.45  -20.88  -22.74  -22.47  -21.12  -20.25  -19.82
   5   -15.90  -16.08  -16.41  -16.88  -17.41  -17.86  -17.94  -17.76  -17.54  -17.41
   6   -14.25  -14.34  -14.49  -14.69  -14.90  -15.07  -15.16  -15.17  -15.14  -15.12
   7   -12.83  -12.87  -12.94  -13.03  -13.12  -13.20  -13.26  -13.29  -13.30  -13.30
   8   -11.74  -11.76  -11.79  -11.84  -11.88  -11.93  -11.96  -11.98  -12.00  -12.00
   9   -11.02  -11.03  -11.05  -11.08  -11.10  -11.13  -11.15  -11.16  -11.17  -11.18
  10   -10.66  -10.67  -10.68  -10.70  -10.71  -10.73  -10.75  -10.76  -10.77  -10.77

 HEAD WILL BE SAVED ON UNIT   21 AT END OF TIME STEP    6, STRESS PERIOD   15

 DRAWDOWN WILL BE SAVED ON UNIT   22 AT END OF TIME STEP    6, STRESS PERIOD   15
1
  VOLUMETRIC BUDGET FOR ENTIRE MODEL AT END OF TIME STEP    6, STRESS PERIOD  15
  ------------------------------------------------------------------------------

     CUMULATIVE VOLUMES      L**3       RATES FOR THIS TIME STEP      L**3/T
     ------------------                 ------------------------

           IN:                                      IN:
           ---                                      ---
             STORAGE =    24871396.0000               STORAGE =        4017.0872
       CONSTANT HEAD =      155047.2656         CONSTANT HEAD =          72.3967
               WELLS =   153456032.0000                 WELLS =       30000.0000
    INST. IB STORAGE =    35445020.0000      INST. IB STORAGE =        5379.4990
    DELAY IB STORAGE =    79757576.0000      DELAY IB STORAGE =       16192.9395

            TOTAL IN =   293685056.0000              TOTAL IN =       55661.9219

          OUT:                                     OUT:
          ----                                     ----
             STORAGE =           0.0000               STORAGE =           0.0000
       CONSTANT HEAD =   140259056.0000         CONSTANT HEAD =       25662.0293
               WELLS =   153426032.0000                 WELLS =       30000.0000
    INST. IB STORAGE =           0.0000      INST. IB STORAGE =           0.0000
    DELAY IB STORAGE =           0.0000      DELAY IB STORAGE =           0.0000

           TOTAL OUT =   293685088.0000             TOTAL OUT =       55662.0312

            IN - OUT =         -32.0000              IN - OUT =          -0.1094

 PERCENT DISCREPANCY =          -0.00     PERCENT DISCREPANCY =          -0.00






         TIME SUMMARY AT END OF TIME STEP    6 IN STRESS PERIOD   15
                    SECONDS     MINUTES      HOURS       DAYS        YEARS
                    -----------------------------------------------------------
   TIME STEP LENGTH 9.18681E+06 1.53113E+05  2551.9      106.33     0.29111    
 STRESS PERIOD TIME 3.15619E+07 5.26032E+05  8767.2      365.30      1.0001    
         TOTAL TIME 4.41953E+08 7.36589E+06 1.22765E+05  5115.2      14.005    
1

                               VOLUMETRIC BUDGET FOR SYSTEMS OF DELAY INTERBEDS
                                          AT END OF TIME STEP  6 IN STRESS PERIOD 15

          |   C U M U L A T I V E   V O L U M E S   L**3           | R A T E S   F O R  T H I S  T I M E  S T E P   L**3/T  |
   SYSTEM |    CHANGE IN     BOUNDARY                    PERCENT   |    CHANGE IN     BOUNDARY                    PERCENT   |
   NUMBER |     STORAGE        FLOW           SUM      DISCREPANCY |     STORAGE        FLOW           SUM      DISCREPANCY |
  --------|--------------------------------------------------------|--------------------------------------------------------|
      1     62192.        -62192.        0.78125E-02    0.12562E-04     10.645        -10.645        0.28610E-05    0.26876E-04
      2    0.79695E+08   -0.79695E+08     8.0000        0.10038E-04     16182.        -16182.       -0.19531E-02   -0.12070E-04
  --------|--------------------------------------------------------|--------------------------------------------------------|
 TOTALS:    0.79758E+08   -0.79758E+08     8.0000        0.10030E-04     16193.        -16193.       -0.19531E-02   -0.12062E-04
1
                            STRESS PERIOD NO.   16, LENGTH =   365.3000    
                            -----------------------------------------------

                              NUMBER OF TIME STEPS =     6

                               MULTIPLIER FOR DELT =     1.300

                            INITIAL TIME STEP SIZE =   28.63744    

 REUSING NON-PARAMETER WELLS FROM LAST STRESS PERIOD

     14 WELLS
 
 SOLVING FOR HEAD 

    44 ITERATIONS FOR TIME STEP   1 IN STRESS PERIOD   16

 MAXIMUM HEAD CHANGE FOR EACH ITERATION:

    HEAD CHANGE   HEAD CHANGE   HEAD CHANGE   HEAD CHANGE   HEAD CHANGE
  LAYER,ROW,COL LAYER,ROW,COL LAYER,ROW,COL LAYER,ROW,COL LAYER,ROW,COL
 ----------------------------------------------------------------------
      1.819         4.456         3.233        -1.649        -3.148    
  (  3,  1,  5) (  3,  1, 10) (  3,  1,  1) (  3,  1,  3) (  3,  1,  1)
    -0.2829       -0.6718        -1.543        -1.141        0.8134    
  (  3,  1, 10) (  3,  1,  1) (  3,  1, 10) (  3,  3,  1) (  3,  1,  1)
    -0.7005E-01   -0.8032E-02   -0.5536E-02   -0.4027E-02   -0.1803E-02
  (  2,  7,  1) (  3,  1, 10) (  3,  2,  7) (  3,  4,  6) (  3,  2,  1)
    -0.1776E-02   -0.6614E-03   -0.8264E-03    0.1416E-02    0.6937E-03
  (  3,  4,  6) (  3,  4,  6) (  3,  4,  6) (  3,  7,  9) (  3,  8,  5)
     0.1301E-02    0.1344E-02    0.1606E-02    0.2429E-02    0.1555E-02
  (  3,  1,  1) (  3,  2,  2) (  3, 10, 10) (  3,  2,  6) (  3,  1,  4)
     0.1019E-02    0.1042E-02    0.7105E-03    0.5018E-03    0.3771E-03
  (  3,  1,  4) (  3,  2,  2) (  3,  1,  4) (  3,  1,  4) (  3,  1,  3)
     0.2482E-03    0.2538E-03    0.1702E-03    0.1221E-03    0.9030E-04
  (  3,  1,  1) (  3,  2,  2) (  3,  2,  1) (  3,  1,  3) (  3,  1,  4)
     0.5941E-04    0.5936E-04    0.4184E-04    0.2943E-04    0.2195E-04
  (  3,  1,  3) (  3,  2,  2) (  3,  2,  1) (  3,  1,  4) (  3,  2,  1)
     0.1373E-04    0.1484E-04    0.1016E-04    0.2673E-05
  (  3,  1,  1) (  3,  2, 10) (  3,  1,  4) (  3,  2,  1)


 OUTPUT CONTROL FOR STRESS PERIOD   16   TIME STEP    1
    SAVE HEAD FOR ALL LAYERS

 HEAD WILL BE SAVED ON UNIT   21 AT END OF TIME STEP    1, STRESS PERIOD   16
 
 SOLVING FOR HEAD 
    43 ITERATIONS FOR TIME STEP   2 IN STRESS PERIOD   16

 MAXIMUM HEAD CHANGE FOR EACH ITERATION:

    HEAD CHANGE   HEAD CHANGE   HEAD CHANGE   HEAD CHANGE   HEAD CHANGE
  LAYER,ROW,COL LAYER,ROW,COL LAYER,ROW,COL LAYER,ROW,COL LAYER,ROW,COL
 ----------------------------------------------------------------------
      1.579         2.867         2.500        -1.072        -3.139    
  (  3,  1, 10) (  3,  1,  4) (  3,  3,  5) (  3,  3, 10) (  3,  1,  1)
    -0.2242       -0.5749        -1.419        0.2512       -0.3505E-01
  (  3,  1, 10) (  3,  1,  1) (  3,  1, 10) (  3, 10,  1) (  2,  1,  1)
    -0.6298E-01   -0.1018E-01   -0.3434E-02   -0.1839E-02   -0.2107E-02
  (  2,  7,  1) (  2,  1,  2) (  3,  3,  6) (  3,  1,  1) (  3,  3,  8)
     0.1247E-02    0.5685E-03    0.2276E-02    0.1498E-02    0.2735E-02
  (  3,  8,  1) (  3,  7,  2) (  3,  5,  1) (  3,  1, 10) (  3,  2,  1)
     0.1795E-02    0.2682E-02    0.2443E-02    0.1964E-02    0.1413E-02
  (  3,  1, 10) (  3,  1,  2) (  3,  1,  1) (  3,  1, 10) (  3,  1, 10)
     0.9805E-03    0.8823E-03    0.6668E-03    0.4414E-03    0.3439E-03
  (  3,  1, 10) (  3,  2,  4) (  3,  1, 10) (  3,  1, 10) (  3,  1, 10)
     0.2122E-03    0.2205E-03    0.1441E-03    0.1093E-03    0.7639E-04
  (  3,  1, 10) (  3,  1, 10) (  3,  1, 10) (  3,  1, 10) (  3,  1, 10)
     0.5537E-04    0.4743E-04    0.3763E-04    0.2312E-04    0.1844E-04
  (  3,  1, 10) (  3,  2,  4) (  3,  1, 10) (  3,  1, 10) (  3,  1, 10)
     0.1218E-04    0.1090E-04    0.4151E-05
  (  3,  1, 10) (  3,  1, 10) (  3,  1, 10)


 OUTPUT CONTROL FOR STRESS PERIOD   16   TIME STEP    2
    SAVE HEAD FOR ALL LAYERS

 HEAD WILL BE SAVED ON UNIT   21 AT END OF TIME STEP    2, STRESS PERIOD   16
 
 SOLVING FOR HEAD 
    40 ITERATIONS FOR TIME STEP   3 IN STRESS PERIOD   16

 MAXIMUM HEAD CHANGE FOR EACH ITERATION:

    HEAD CHANGE   HEAD CHANGE   HEAD CHANGE   HEAD CHANGE   HEAD CHANGE
  LAYER,ROW,COL LAYER,ROW,COL LAYER,ROW,COL LAYER,ROW,COL LAYER,ROW,COL
 ----------------------------------------------------------------------
      1.142         2.317         2.098       -0.9433        -3.004    
  (  3,  1,  1) (  3,  1,  9) (  3,  2,  1) (  3,  1, 10) (  3,  1,  1)
    -0.1647       -0.4376        -1.156        0.5043        0.4179E-01
  (  3,  1, 10) (  3,  1,  1) (  3,  1, 10) (  3, 10,  1) (  2, 10,  9)
    -0.5328E-01   -0.1112E-01   -0.5588E-02   -0.1037E-02   -0.1770E-02
  (  2,  7,  1) (  2,  1,  2) (  3,  3,  7) (  3,  9,  3) (  3,  3,  9)
     0.2054E-02    0.1971E-02    0.2045E-02    0.2657E-02    0.3444E-02
  (  3,  1,  1) (  3, 10, 10) (  3,  1,  1) (  3,  8,  1) (  3,  1,  1)
     0.2164E-02    0.2585E-02    0.1763E-02    0.1150E-02    0.8353E-03
  (  3,  1,  1) (  3,  2,  7) (  3,  2,  7) (  3,  1,  5) (  3,  1,  5)
     0.4849E-03    0.5539E-03    0.3884E-03    0.2546E-03    0.1832E-03
  (  3,  1,  5) (  3,  2,  7) (  3,  1,  5) (  3,  1,  5) (  3,  1,  5)
     0.1083E-03    0.1239E-03    0.8476E-04    0.5587E-04    0.4138E-04
  (  3,  1,  5) (  3,  2,  7) (  3,  1,  5) (  3,  1,  5) (  3,  1,  5)
     0.2483E-04    0.2729E-04    0.1852E-04    0.1273E-04    0.7923E-05
  (  3,  1,  5) (  3,  2,  8) (  3,  1,  5) (  3,  1,  5) (  3,  1,  5)


 OUTPUT CONTROL FOR STRESS PERIOD   16   TIME STEP    3
    SAVE HEAD FOR ALL LAYERS

 HEAD WILL BE SAVED ON UNIT   21 AT END OF TIME STEP    3, STRESS PERIOD   16
 
 SOLVING FOR HEAD 
    36 ITERATIONS FOR TIME STEP   4 IN STRESS PERIOD   16

 MAXIMUM HEAD CHANGE FOR EACH ITERATION:

    HEAD CHANGE   HEAD CHANGE   HEAD CHANGE   HEAD CHANGE   HEAD CHANGE
  LAYER,ROW,COL LAYER,ROW,COL LAYER,ROW,COL LAYER,ROW,COL LAYER,ROW,COL
 ----------------------------------------------------------------------
      1.044         1.685         1.646       -0.8924        -3.048    
  (  3,  1,  1) (  3,  2, 10) (  3,  1,  1) (  3,  1, 10) (  3,  1,  1)
     0.1899        0.7104E-01   -0.2543E-01   -0.1702E-01   -0.1293E-01
  (  3, 10, 10) (  3,  9,  7) (  3,  2,  8) (  3,  2,  7) (  3,  3,  7)
    -0.5591E-02   -0.7944E-02   -0.2907E-02   -0.2611E-02    0.2375E-02
  (  3,  1, 10) (  3,  3,  7) (  3,  3,  7) (  3,  3,  7) (  3,  1,  1)
     0.1949E-02    0.4013E-02    0.3056E-02    0.1986E-02    0.1439E-02
  (  3, 10,  5) (  3,  1,  1) (  3,  1,  4) (  3,  1,  1) (  3,  1,  1)
     0.7882E-03    0.9282E-03    0.6820E-03    0.4148E-03    0.2847E-03
  (  3,  1,  1) (  3,  1,  3) (  3,  1,  1) (  3,  1,  1) (  3,  1,  3)
     0.1633E-03    0.1974E-03    0.1383E-03    0.8424E-04    0.6306E-04
  (  3,  1,  1) (  3,  1,  1) (  3,  1,  3) (  3,  1,  3) (  3,  1,  1)
     0.3424E-04    0.3996E-04    0.2845E-04    0.1874E-04    0.1217E-04
  (  3,  1,  1) (  3,  1,  3) (  3,  1,  1) (  3,  1,  1) (  3,  1,  8)
     0.6698E-05
  (  3,  1,  1)


 OUTPUT CONTROL FOR STRESS PERIOD   16   TIME STEP    4
    SAVE HEAD FOR ALL LAYERS

 HEAD WILL BE SAVED ON UNIT   21 AT END OF TIME STEP    4, STRESS PERIOD   16
 
 SOLVING FOR HEAD 
    31 ITERATIONS FOR TIME STEP   5 IN STRESS PERIOD   16

 MAXIMUM HEAD CHANGE FOR EACH ITERATION:

    HEAD CHANGE   HEAD CHANGE   HEAD CHANGE   HEAD CHANGE   HEAD CHANGE
  LAYER,ROW,COL LAYER,ROW,COL LAYER,ROW,COL LAYER,ROW,COL LAYER,ROW,COL
 ----------------------------------------------------------------------
     0.7315         1.084         1.167       -0.9643        -2.708    
  (  3,  1, 10) (  3,  2,  8) (  3,  2,  1) (  3,  2, 10) (  3,  1,  1)
     0.7665        0.4578        0.1350        0.7043E-01   -0.4710E-01
  (  3, 10,  1) (  3,  9,  3) (  2,  1,  8) (  2, 10,  1) (  2, 10, 10)
     0.7670E-01    0.1363E-01   -0.7363E-02   -0.3951E-02   -0.2655E-02
  (  2,  6,  1) (  2,  1,  2) (  3,  9,  5) (  3,  9,  4) (  3,  9,  5)
    -0.2386E-02   -0.1832E-02   -0.1379E-02   -0.7572E-03   -0.4989E-03
  (  2,  6,  1) (  3,  9,  5) (  3,  9,  4) (  3,  9,  5) (  3,  9,  4)
    -0.2118E-03   -0.3433E-03   -0.2639E-03   -0.1434E-03   -0.9732E-04
  (  3, 10, 10) (  3,  9,  4) (  3,  9,  5) (  3,  9,  4) (  3,  9,  5)
    -0.4011E-04   -0.6669E-04   -0.5057E-04   -0.2826E-04   -0.1889E-04
  (  3,  9,  4) (  3,  9,  5) (  3,  9,  4) (  3,  9,  5) (  3,  9,  4)
    -0.8398E-05
  (  3,  9,  5)


 OUTPUT CONTROL FOR STRESS PERIOD   16   TIME STEP    5
    SAVE HEAD FOR ALL LAYERS

 HEAD WILL BE SAVED ON UNIT   21 AT END OF TIME STEP    5, STRESS PERIOD   16
 
 SOLVING FOR HEAD 
    32 ITERATIONS FOR TIME STEP   6 IN STRESS PERIOD   16

 MAXIMUM HEAD CHANGE FOR EACH ITERATION:

    HEAD CHANGE   HEAD CHANGE   HEAD CHANGE   HEAD CHANGE   HEAD CHANGE
  LAYER,ROW,COL LAYER,ROW,COL LAYER,ROW,COL LAYER,ROW,COL LAYER,ROW,COL
 ----------------------------------------------------------------------
     0.3934        0.6698        0.4710        -1.119        -1.142    
  (  3,  1, 10) (  3,  1,  9) (  3,  2,  4) (  3,  1, 10) (  3,  1,  1)
     0.4909        0.2864        0.7876E-01    0.2622E-01   -0.2539E-01
  (  3,  1, 10) (  3,  2,  2) (  2,  1,  9) (  2, 10,  1) (  2, 10, 10)
     0.2547E-01   -0.1139E-01   -0.9245E-02   -0.4704E-02   -0.2853E-02
  (  2,  7,  1) (  3,  2,  7) (  3,  3,  6) (  3,  3,  6) (  3,  3,  6)
    -0.2484E-02   -0.1910E-02   -0.1630E-02   -0.8137E-03   -0.5177E-03
  (  2,  7,  1) (  3,  3,  6) (  3,  3,  6) (  3,  3,  6) (  3,  3,  6)
    -0.3937E-03   -0.3402E-03   -0.2855E-03   -0.1499E-03   -0.9325E-04
  (  2,  8,  1) (  3,  3,  6) (  3,  3,  6) (  3,  3,  6) (  3,  3,  6)
    -0.4186E-04   -0.6170E-04   -0.5229E-04   -0.2727E-04   -0.1792E-04
  (  2,  8,  1) (  3,  3,  6) (  3,  3,  6) (  3,  3,  6) (  3,  3,  6)
    -0.1129E-04   -0.4018E-05
  (  2,  8,  1) (  3,  3,  6)


 OUTPUT CONTROL FOR STRESS PERIOD   16   TIME STEP    6
    PRINT BUDGET
    PRINT HEAD FOR ALL LAYERS
    SAVE HEAD FOR ALL LAYERS
    SAVE DRAWDOWN FOR ALL LAYERS
1
              HEAD IN LAYER   1 AT END OF TIME STEP   6 IN STRESS PERIOD   16
  ---------------------------------------------------------------------------

           1       2       3       4       5       6       7       8       9      10
 ...................................................................................
   1    20.97   20.62   19.95   19.53   19.33   19.33   19.53   19.95   20.61   20.96
   2    19.95   19.44   19.02   18.72   18.57   18.56   18.71   19.01   19.43   19.94
   3    18.48   17.99   17.62   17.37   17.24   17.24   17.36   17.61   17.97   18.47
   4    16.48   16.05   15.75   15.56   15.46   15.46   15.55   15.74   16.04   16.47
   5    13.65   13.56   13.46   13.38   13.33   13.33   13.37   13.45   13.55   13.64
   6    11.15   11.12   11.08   11.05   11.02   11.02   11.04   11.08   11.12   11.14
   7     8.73    8.71    8.67    8.64    8.62    8.62    8.64    8.67    8.71    8.73
   8     6.38    6.33    6.24    6.15    6.10    6.10    6.15    6.24    6.33    6.38
   9     4.22    4.06    3.79    3.47    3.34    3.34    3.47    3.78    4.06    4.22
  10     2.66    2.28    1.44    0.00    0.00    0.00    0.00    1.44    2.27    2.66
1
              HEAD IN LAYER   2 AT END OF TIME STEP   6 IN STRESS PERIOD   16
  ---------------------------------------------------------------------------

           1       2       3       4       5       6       7       8       9      10
 ...................................................................................
   1    -1.29   -1.27   -1.27   -1.28   -1.29   -1.31   -1.33   -1.35   -1.38   -1.41
   2    -1.40   -0.29   -0.56   -1.04   -1.53   -1.90   -1.87   -1.54   -1.22   -1.59
   3    -1.55   -0.87   -1.33   -2.14   -3.30   -4.87   -4.48   -3.15   -2.22   -1.79
   4    -1.74   -1.25   -1.62   -2.22   -2.97   -3.82   -3.67   -2.96   -2.35   -1.99
   5    -1.96   -1.58   -1.73   -2.00   -2.29   -2.51   -2.54   -2.40   -2.25   -2.19
   6    -2.19   -1.89   -1.94   -2.06   -2.17   -2.26   -2.29   -2.28   -2.27   -2.39
   7    -2.43   -2.32   -2.35   -2.41   -2.47   -2.51   -2.53   -2.53   -2.53   -2.59
   8    -2.68   -2.89   -2.98   -3.05   -3.10   -3.12   -3.11   -3.07   -3.01   -2.80
   9    -2.92   -3.56   -3.78   -3.94   -4.01   -4.03   -3.97   -3.83   -3.63   -3.00
  10    -3.14   -3.19   -3.23   -3.26   -3.28   -3.29   -3.28   -3.26   -3.22   -3.19
1
              HEAD IN LAYER   3 AT END OF TIME STEP   6 IN STRESS PERIOD   16
  ---------------------------------------------------------------------------

           1       2       3       4       5       6       7       8       9      10
 ...................................................................................
   1   -19.23  -19.40  -19.71  -20.12  -20.56  -20.90  -21.06  -21.06  -20.98  -20.92
   2   -19.31  -19.57  -20.07  -20.80  -21.67  -22.44  -22.52  -22.11  -21.70  -21.47
   3   -19.10  -19.49  -20.31  -21.71  -23.94  -27.54  -26.69  -23.99  -22.52  -21.86
   4   -18.07  -18.38  -19.03  -20.04  -21.47  -23.33  -23.07  -21.72  -20.84  -20.41
   5   -16.45  -16.63  -16.96  -17.43  -17.96  -18.41  -18.50  -18.31  -18.10  -17.96
   6   -14.77  -14.85  -15.00  -15.20  -15.42  -15.59  -15.68  -15.68  -15.66  -15.63
   7   -13.31  -13.34  -13.41  -13.50  -13.60  -13.68  -13.74  -13.77  -13.78  -13.78
   8   -12.19  -12.21  -12.24  -12.29  -12.33  -12.37  -12.41  -12.43  -12.45  -12.45
   9   -11.45  -11.46  -11.48  -11.50  -11.53  -11.55  -11.57  -11.59  -11.60  -11.60
  10   -11.08  -11.08  -11.10  -11.11  -11.13  -11.15  -11.16  -11.17  -11.18  -11.19

 HEAD WILL BE SAVED ON UNIT   21 AT END OF TIME STEP    6, STRESS PERIOD   16

 DRAWDOWN WILL BE SAVED ON UNIT   22 AT END OF TIME STEP    6, STRESS PERIOD   16
1
  VOLUMETRIC BUDGET FOR ENTIRE MODEL AT END OF TIME STEP    6, STRESS PERIOD  16
  ------------------------------------------------------------------------------

     CUMULATIVE VOLUMES      L**3       RATES FOR THIS TIME STEP      L**3/T
     ------------------                 ------------------------

           IN:                                      IN:
           ---                                      ---
             STORAGE =    26320396.0000               STORAGE =        3933.1379
       CONSTANT HEAD =      182871.9844         CONSTANT HEAD =          78.6950
               WELLS =   164415024.0000                 WELLS =       30000.0000
    INST. IB STORAGE =    37402628.0000      INST. IB STORAGE =        5342.1987
    DELAY IB STORAGE =    85649976.0000      DELAY IB STORAGE =       16091.5537

            TOTAL IN =   313970912.0000              TOTAL IN =       55445.5820

          OUT:                                     OUT:
          ----                                     ----
             STORAGE =           0.0000               STORAGE =           0.0000
       CONSTANT HEAD =   149585904.0000         CONSTANT HEAD =       25445.6484
               WELLS =   164385024.0000                 WELLS =       30000.0000
    INST. IB STORAGE =           0.0000      INST. IB STORAGE =           0.0000
    DELAY IB STORAGE =           0.0000      DELAY IB STORAGE =           0.0000

           TOTAL OUT =   313970944.0000             TOTAL OUT =       55445.6484

            IN - OUT =         -32.0000              IN - OUT =      -6.6406E-02

 PERCENT DISCREPANCY =          -0.00     PERCENT DISCREPANCY =          -0.00






         TIME SUMMARY AT END OF TIME STEP    6 IN STRESS PERIOD   16
                    SECONDS     MINUTES      HOURS       DAYS        YEARS
                    -----------------------------------------------------------
   TIME STEP LENGTH 9.18681E+06 1.53113E+05  2551.9      106.33     0.29111    
 STRESS PERIOD TIME 3.15619E+07 5.26032E+05  8767.2      365.30      1.0001    
         TOTAL TIME 4.73515E+08 7.89192E+06 1.31532E+05  5480.5      15.005    
1

                               VOLUMETRIC BUDGET FOR SYSTEMS OF DELAY INTERBEDS
                                          AT END OF TIME STEP  6 IN STRESS PERIOD 16

          |   C U M U L A T I V E   V O L U M E S   L**3           | R A T E S   F O R  T H I S  T I M E  S T E P   L**3/T  |
   SYSTEM |    CHANGE IN     BOUNDARY                    PERCENT   |    CHANGE IN     BOUNDARY                    PERCENT   |
   NUMBER |     STORAGE        FLOW           SUM      DISCREPANCY |     STORAGE        FLOW           SUM      DISCREPANCY |
  --------|--------------------------------------------------------|--------------------------------------------------------|
      1     66022.        -66022.        0.78125E-02    0.11833E-04     10.402        -10.402         0.0000         0.0000    
      2    0.85584E+08   -0.85584E+08     8.0000        0.93475E-05     16081.        -16081.       -0.19531E-02   -0.12145E-04
  --------|--------------------------------------------------------|--------------------------------------------------------|
 TOTALS:    0.85650E+08   -0.85650E+08     8.0000        0.93403E-05     16092.        -16092.       -0.19531E-02   -0.12138E-04
1
                            STRESS PERIOD NO.   17, LENGTH =   365.3000    
                            -----------------------------------------------

                              NUMBER OF TIME STEPS =     6

                               MULTIPLIER FOR DELT =     1.300

                            INITIAL TIME STEP SIZE =   28.63744    

 REUSING NON-PARAMETER WELLS FROM LAST STRESS PERIOD

     14 WELLS
 
 SOLVING FOR HEAD 

    44 ITERATIONS FOR TIME STEP   1 IN STRESS PERIOD   17

 MAXIMUM HEAD CHANGE FOR EACH ITERATION:

    HEAD CHANGE   HEAD CHANGE   HEAD CHANGE   HEAD CHANGE   HEAD CHANGE
  LAYER,ROW,COL LAYER,ROW,COL LAYER,ROW,COL LAYER,ROW,COL LAYER,ROW,COL
 ----------------------------------------------------------------------
      1.672         3.352         2.898        -1.425        -2.951    
  (  3,  1, 10) (  3,  2, 10) (  3,  1,  1) (  3,  1,  3) (  3,  1,  1)
    -0.2775       -0.6929        -1.544        -1.143        0.8143    
  (  3,  1, 10) (  3,  1,  1) (  3,  1, 10) (  3,  3,  1) (  3,  1,  1)
    -0.7127E-01   -0.7618E-02   -0.5453E-02   -0.3459E-02   -0.1775E-02
  (  2,  7,  1) (  3,  2,  9) (  3,  2,  7) (  3,  1, 10) (  3,  2,  2)
    -0.1473E-02   -0.5553E-03   -0.6090E-03    0.1438E-02    0.6735E-03
  (  3,  1,  4) (  3,  6,  6) (  3, 10, 10) (  3,  7, 10) (  3,  1,  9)
     0.1423E-02    0.1313E-02    0.1502E-02    0.2001E-02    0.1675E-02
  (  3,  1,  1) (  3,  1,  9) (  3, 10, 10) (  3,  1,  5) (  3,  1,  9)
     0.1148E-02    0.1043E-02    0.7739E-03    0.5461E-03    0.4131E-03
  (  3,  1,  9) (  3,  1,  9) (  3,  1,  9) (  3,  1,  9) (  3,  1,  9)
     0.2728E-03    0.2658E-03    0.1827E-03    0.1353E-03    0.9946E-04
  (  3,  1,  9) (  3,  1,  9) (  3,  1,  9) (  3,  1,  9) (  3,  1,  9)
     0.6959E-04    0.6172E-04    0.4645E-04    0.3300E-04    0.2489E-04
  (  3,  1,  9) (  3,  1,  9) (  3,  1,  9) (  3,  1,  9) (  3,  1,  9)
     0.1705E-04    0.1556E-04    0.1078E-04    0.3761E-05
  (  3,  1,  9) (  3,  1,  9) (  3,  1,  9) (  3,  1,  9)


 OUTPUT CONTROL FOR STRESS PERIOD   17   TIME STEP    1
    SAVE HEAD FOR ALL LAYERS

 HEAD WILL BE SAVED ON UNIT   21 AT END OF TIME STEP    1, STRESS PERIOD   17
 
 SOLVING FOR HEAD 
    42 ITERATIONS FOR TIME STEP   2 IN STRESS PERIOD   17

 MAXIMUM HEAD CHANGE FOR EACH ITERATION:

    HEAD CHANGE   HEAD CHANGE   HEAD CHANGE   HEAD CHANGE   HEAD CHANGE
  LAYER,ROW,COL LAYER,ROW,COL LAYER,ROW,COL LAYER,ROW,COL LAYER,ROW,COL
 ----------------------------------------------------------------------
      1.279         3.080         2.760        -1.157        -3.184    
  (  3,  4, 10) (  3,  1,  8) (  3,  1,  1) (  3,  1,  3) (  3,  1,  1)
    -0.2240       -0.5391        -1.352        0.2522       -0.3554E-01
  (  3,  1, 10) (  3,  1,  1) (  3,  1, 10) (  3, 10,  1) (  2,  1,  1)
    -0.5967E-01   -0.1053E-01   -0.3189E-02   -0.1654E-02   -0.1978E-02
  (  2,  7,  1) (  2,  1,  2) (  3,  3,  4) (  3,  1,  1) (  3,  3,  5)
     0.1443E-02    0.7670E-03    0.2277E-02    0.1157E-02    0.2687E-02
  (  3,  7, 10) (  3,  9,  7) (  3,  1, 10) (  3,  2,  7) (  3,  1, 10)
     0.1402E-02    0.2671E-02    0.2377E-02    0.1748E-02    0.1313E-02
  (  3,  1,  5) (  3,  1, 10) (  3,  2,  7) (  3,  1,  5) (  3,  2,  7)
     0.8076E-03    0.8799E-03    0.5963E-03    0.4183E-03    0.2999E-03
  (  3,  1,  5) (  3,  2,  7) (  3,  2,  7) (  3,  2,  7) (  3,  1,  5)
     0.1902E-03    0.2037E-03    0.1446E-03    0.9530E-04    0.7235E-04
  (  3,  1,  5) (  3,  2,  7) (  3,  2,  7) (  3,  1,  5) (  3,  2,  7)
     0.4557E-04    0.4826E-04    0.3221E-04    0.2344E-04    0.1662E-04
  (  3,  1,  5) (  3,  2,  7) (  3,  2,  8) (  3,  2,  7) (  3,  1,  5)
     0.1048E-04    0.7136E-05
  (  3,  1,  5) (  3,  2,  7)


 OUTPUT CONTROL FOR STRESS PERIOD   17   TIME STEP    2
    SAVE HEAD FOR ALL LAYERS

 HEAD WILL BE SAVED ON UNIT   21 AT END OF TIME STEP    2, STRESS PERIOD   17
 
 SOLVING FOR HEAD 
    40 ITERATIONS FOR TIME STEP   3 IN STRESS PERIOD   17

 MAXIMUM HEAD CHANGE FOR EACH ITERATION:

    HEAD CHANGE   HEAD CHANGE   HEAD CHANGE   HEAD CHANGE   HEAD CHANGE
  LAYER,ROW,COL LAYER,ROW,COL LAYER,ROW,COL LAYER,ROW,COL LAYER,ROW,COL
 ----------------------------------------------------------------------
      1.301         2.191         2.161       -0.9151        -2.990    
  (  3,  1, 10) (  3,  2, 10) (  3,  2,  5) (  3,  2, 10) (  3,  1,  1)
     0.1592       -0.4139        -1.112        0.4908        0.3981E-01
  (  2,  6,  1) (  3,  1,  1) (  3,  1, 10) (  3, 10,  1) (  2, 10,  9)
    -0.5050E-01   -0.1167E-01   -0.5440E-02   -0.1494E-02   -0.1882E-02
  (  2,  7,  1) (  2,  1,  2) (  3,  3,  7) (  3,  6, 10) (  3,  3,  7)
     0.1622E-02    0.2028E-02    0.1927E-02    0.2503E-02    0.3308E-02
  (  3,  1, 10) (  3, 10, 10) (  3,  1,  1) (  3,  9,  8) (  3,  1,  1)
     0.2044E-02    0.2357E-02    0.1624E-02    0.1097E-02    0.7787E-03
  (  3,  1,  1) (  3,  1,  6) (  3,  1,  6) (  3,  1,  6) (  3,  1,  6)
     0.4671E-03    0.4998E-03    0.3701E-03    0.2374E-03    0.1764E-03
  (  3,  1,  6) (  3,  2,  9) (  3,  1,  6) (  3,  1,  6) (  3,  1,  6)
     0.1012E-03    0.1143E-03    0.7864E-04    0.5342E-04    0.3915E-04
  (  3,  1,  6) (  3,  1,  6) (  3,  1,  6) (  3,  1,  6) (  3,  1,  6)
     0.2461E-04    0.2462E-04    0.1798E-04    0.1141E-04    0.4893E-05
  (  3,  1,  6) (  3,  1,  6) (  3,  1,  6) (  3,  1,  6) (  3,  1,  6)


 OUTPUT CONTROL FOR STRESS PERIOD   17   TIME STEP    3
    SAVE HEAD FOR ALL LAYERS

 HEAD WILL BE SAVED ON UNIT   21 AT END OF TIME STEP    3, STRESS PERIOD   17
 
 SOLVING FOR HEAD 
    36 ITERATIONS FOR TIME STEP   4 IN STRESS PERIOD   17

 MAXIMUM HEAD CHANGE FOR EACH ITERATION:

    HEAD CHANGE   HEAD CHANGE   HEAD CHANGE   HEAD CHANGE   HEAD CHANGE
  LAYER,ROW,COL LAYER,ROW,COL LAYER,ROW,COL LAYER,ROW,COL LAYER,ROW,COL
 ----------------------------------------------------------------------
     0.7286         1.862         1.659       -0.7626        -3.031    
  (  3,  1,  1) (  3,  1, 10) (  3,  3,  4) (  3,  2, 10) (  3,  1,  1)
     0.1849        0.7168E-01   -0.2469E-01   -0.1663E-01   -0.1271E-01
  (  3, 10, 10) (  3,  9,  6) (  3,  1,  7) (  3,  2,  7) (  3,  3,  7)
    -0.4911E-02   -0.7508E-02   -0.2913E-02   -0.2427E-02    0.2276E-02
  (  3,  1,  1) (  3,  3,  7) (  3,  6,  4) (  3,  3,  7) (  3,  1,  9)
     0.1865E-02    0.3526E-02    0.2849E-02    0.1824E-02    0.1319E-02
  (  3, 10,  1) (  3,  1,  1) (  3,  1,  4) (  3,  1,  2) (  3,  1,  2)
     0.6828E-03    0.8855E-03    0.6198E-03    0.3808E-03    0.2591E-03
  (  3,  1,  1) (  3,  2,  2) (  3,  1,  2) (  3,  1,  2) (  3,  1,  3)
     0.1456E-03    0.1775E-03    0.1259E-03    0.7528E-04    0.5540E-04
  (  3,  1, 10) (  3,  1,  1) (  3,  1,  4) (  3,  1,  3) (  3,  1,  2)
     0.3129E-04    0.3642E-04    0.2603E-04    0.1647E-04    0.1117E-04
  (  2,  7,  1) (  3,  2,  3) (  3,  1,  1) (  3,  1,  2) (  3,  1,  4)
     0.5575E-05
  (  2,  7,  1)


 OUTPUT CONTROL FOR STRESS PERIOD   17   TIME STEP    4
    SAVE HEAD FOR ALL LAYERS

 HEAD WILL BE SAVED ON UNIT   21 AT END OF TIME STEP    4, STRESS PERIOD   17
 
 SOLVING FOR HEAD 
    31 ITERATIONS FOR TIME STEP   5 IN STRESS PERIOD   17

 MAXIMUM HEAD CHANGE FOR EACH ITERATION:

    HEAD CHANGE   HEAD CHANGE   HEAD CHANGE   HEAD CHANGE   HEAD CHANGE
  LAYER,ROW,COL LAYER,ROW,COL LAYER,ROW,COL LAYER,ROW,COL LAYER,ROW,COL
 ----------------------------------------------------------------------
     0.6662         1.089         1.067       -0.9472        -2.672    
  (  3,  1, 10) (  3,  2,  8) (  3,  2,  1) (  3,  1, 10) (  3,  1,  1)
     0.7317        0.4360        0.1358        0.7035E-01   -0.4752E-01
  (  3, 10,  1) (  3,  9,  3) (  2,  1,  8) (  2, 10,  1) (  2, 10, 10)
     0.7655E-01    0.1319E-01   -0.6890E-02   -0.3670E-02   -0.2499E-02
  (  2,  6,  1) (  2,  1,  2) (  3,  9,  5) (  3,  9,  4) (  3,  9,  3)
    -0.2314E-02   -0.1708E-02   -0.1282E-02   -0.7068E-03   -0.4588E-03
  (  2,  6,  1) (  3,  9,  3) (  3,  9,  3) (  3,  9,  5) (  3,  9,  5)
    -0.1945E-03   -0.3180E-03   -0.2449E-03   -0.1310E-03   -0.9081E-04
  (  3,  9,  1) (  3,  9,  3) (  3,  9,  4) (  3,  9,  5) (  3,  9,  4)
    -0.3686E-04   -0.6129E-04   -0.4637E-04   -0.2610E-04   -0.1685E-04
  (  3,  9,  5) (  3,  9,  4) (  3,  9,  4) (  3,  9,  4) (  3,  9,  5)
    -0.7786E-05
  (  3,  9,  6)


 OUTPUT CONTROL FOR STRESS PERIOD   17   TIME STEP    5
    SAVE HEAD FOR ALL LAYERS

 HEAD WILL BE SAVED ON UNIT   21 AT END OF TIME STEP    5, STRESS PERIOD   17
 
 SOLVING FOR HEAD 
    32 ITERATIONS FOR TIME STEP   6 IN STRESS PERIOD   17

 MAXIMUM HEAD CHANGE FOR EACH ITERATION:

    HEAD CHANGE   HEAD CHANGE   HEAD CHANGE   HEAD CHANGE   HEAD CHANGE
  LAYER,ROW,COL LAYER,ROW,COL LAYER,ROW,COL LAYER,ROW,COL LAYER,ROW,COL
 ----------------------------------------------------------------------
     0.4455        0.6325        0.5053        -1.091        -1.161    
  (  3,  1, 10) (  3,  2,  9) (  3,  2,  1) (  3,  1, 10) (  3,  1,  1)
     0.4989        0.2948        0.8163E-01    0.2757E-01   -0.2610E-01
  (  3,  1, 10) (  3,  2,  2) (  2,  1,  9) (  2, 10,  1) (  2, 10, 10)
     0.2663E-01   -0.1144E-01   -0.9253E-02   -0.4691E-02   -0.2856E-02
  (  2,  7,  1) (  3,  2,  7) (  3,  2,  5) (  3,  2,  7) (  3,  2,  6)
    -0.2466E-02   -0.1902E-02   -0.1621E-02   -0.8077E-03   -0.5106E-03
  (  2,  7,  1) (  3,  3,  6) (  3,  3,  6) (  3,  3,  6) (  3,  3,  6)
    -0.3880E-03   -0.3382E-03   -0.2821E-03   -0.1476E-03   -0.9027E-04
  (  2,  8,  1) (  3,  3,  6) (  3,  3,  6) (  3,  3,  6) (  3,  3,  6)
    -0.4069E-04   -0.6017E-04   -0.5095E-04   -0.2682E-04   -0.1663E-04
  (  2,  8,  1) (  3,  3,  6) (  3,  3,  6) (  3,  3,  6) (  3,  3,  6)
    -0.1133E-04   -0.4183E-05
  (  2,  8,  1) (  3,  2,  7)


 OUTPUT CONTROL FOR STRESS PERIOD   17   TIME STEP    6
    PRINT BUDGET
    PRINT HEAD FOR ALL LAYERS
    SAVE HEAD FOR ALL LAYERS
    SAVE DRAWDOWN FOR ALL LAYERS
1
              HEAD IN LAYER   1 AT END OF TIME STEP   6 IN STRESS PERIOD   17
  ---------------------------------------------------------------------------

           1       2       3       4       5       6       7       8       9      10
 ...................................................................................
   1    20.87   20.52   19.85   19.43   19.23   19.22   19.43   19.85   20.51   20.86
   2    19.85   19.34   18.92   18.62   18.47   18.46   18.61   18.91   19.34   19.84
   3    18.38   17.89   17.52   17.27   17.15   17.14   17.26   17.51   17.88   18.37
   4    16.39   15.96   15.66   15.47   15.37   15.37   15.46   15.65   15.95   16.38
   5    13.57   13.48   13.38   13.29   13.25   13.25   13.29   13.37   13.47   13.56
   6    11.07   11.05   11.01   10.97   10.95   10.95   10.97   11.00   11.04   11.07
   7     8.67    8.65    8.61    8.58    8.56    8.55    8.57    8.61    8.64    8.66
   8     6.33    6.28    6.19    6.10    6.05    6.05    6.10    6.19    6.28    6.33
   9     4.18    4.03    3.76    3.45    3.32    3.32    3.44    3.75    4.03    4.18
  10     2.64    2.26    1.43    0.00    0.00    0.00    0.00    1.43    2.25    2.64
1
              HEAD IN LAYER   2 AT END OF TIME STEP   6 IN STRESS PERIOD   17
  ---------------------------------------------------------------------------

           1       2       3       4       5       6       7       8       9      10
 ...................................................................................
   1    -1.61   -1.60   -1.60   -1.61   -1.62   -1.64   -1.65   -1.68   -1.70   -1.74
   2    -1.72   -0.64   -0.92   -1.40   -1.89   -2.27   -2.23   -1.90   -1.57   -1.91
   3    -1.87   -1.21   -1.68   -2.49   -3.66   -5.22   -4.83   -3.50   -2.57   -2.10
   4    -2.05   -1.58   -1.95   -2.55   -3.31   -4.15   -4.01   -3.30   -2.69   -2.30
   5    -2.26   -1.89   -2.05   -2.32   -2.61   -2.83   -2.85   -2.72   -2.56   -2.49
   6    -2.48   -2.18   -2.23   -2.35   -2.47   -2.55   -2.59   -2.58   -2.56   -2.68
   7    -2.72   -2.59   -2.62   -2.68   -2.74   -2.78   -2.80   -2.80   -2.80   -2.88
   8    -2.96   -3.14   -3.23   -3.30   -3.34   -3.37   -3.36   -3.33   -3.26   -3.08
   9    -3.19   -3.80   -4.01   -4.17   -4.25   -4.26   -4.21   -4.07   -3.87   -3.27
  10    -3.41   -3.45   -3.50   -3.53   -3.55   -3.55   -3.54   -3.52   -3.49   -3.45
1
              HEAD IN LAYER   3 AT END OF TIME STEP   6 IN STRESS PERIOD   17
  ---------------------------------------------------------------------------

           1       2       3       4       5       6       7       8       9      10
 ...................................................................................
   1   -19.86  -20.03  -20.34  -20.75  -21.19  -21.54  -21.70  -21.69  -21.62  -21.56
   2   -19.93  -20.19  -20.70  -21.43  -22.29  -23.07  -23.14  -22.74  -22.33  -22.10
   3   -19.70  -20.09  -20.92  -22.31  -24.54  -28.16  -27.30  -24.60  -23.13  -22.47
   4   -18.64  -18.96  -19.61  -20.62  -22.05  -23.92  -23.65  -22.30  -21.43  -21.00
   5   -17.00  -17.17  -17.51  -17.98  -18.51  -18.96  -19.05  -18.86  -18.65  -18.51
   6   -15.28  -15.36  -15.52  -15.72  -15.93  -16.10  -16.19  -16.20  -16.17  -16.15
   7   -13.78  -13.82  -13.89  -13.98  -14.08  -14.16  -14.22  -14.25  -14.26  -14.27
   8   -12.64  -12.66  -12.69  -12.74  -12.78  -12.83  -12.86  -12.89  -12.90  -12.91
   9   -11.88  -11.89  -11.91  -11.93  -11.96  -11.98  -12.01  -12.02  -12.03  -12.04
  10   -11.50  -11.51  -11.52  -11.53  -11.55  -11.57  -11.58  -11.60  -11.61  -11.61

 HEAD WILL BE SAVED ON UNIT   21 AT END OF TIME STEP    6, STRESS PERIOD   17

 DRAWDOWN WILL BE SAVED ON UNIT   22 AT END OF TIME STEP    6, STRESS PERIOD   17
1
  VOLUMETRIC BUDGET FOR ENTIRE MODEL AT END OF TIME STEP    6, STRESS PERIOD  17
  ------------------------------------------------------------------------------

     CUMULATIVE VOLUMES      L**3       RATES FOR THIS TIME STEP      L**3/T
     ------------------                 ------------------------

           IN:                                      IN:
           ---                                      ---
             STORAGE =    27739470.0000               STORAGE =        3852.5996
       CONSTANT HEAD =      212998.3438         CONSTANT HEAD =          84.9967
               WELLS =   175374016.0000                 WELLS =       30000.0000
    INST. IB STORAGE =    39347124.0000      INST. IB STORAGE =        5307.7559
    DELAY IB STORAGE =    91504976.0000      DELAY IB STORAGE =       15987.9453

            TOTAL IN =   334178560.0000              TOTAL IN =       55233.2969

          OUT:                                     OUT:
          ----                                     ----
             STORAGE =           0.0000               STORAGE =           0.0000
       CONSTANT HEAD =   158834624.0000         CONSTANT HEAD =       25233.3750
               WELLS =   175344016.0000                 WELLS =       30000.0000
    INST. IB STORAGE =           0.0000      INST. IB STORAGE =           0.0000
    DELAY IB STORAGE =           0.0000      DELAY IB STORAGE =           0.0000

           TOTAL OUT =   334178624.0000             TOTAL OUT =       55233.3750

            IN - OUT =         -64.0000              IN - OUT =      -7.8125E-02

 PERCENT DISCREPANCY =          -0.00     PERCENT DISCREPANCY =          -0.00






         TIME SUMMARY AT END OF TIME STEP    6 IN STRESS PERIOD   17
                    SECONDS     MINUTES      HOURS       DAYS        YEARS
                    -----------------------------------------------------------
   TIME STEP LENGTH 9.18681E+06 1.53113E+05  2551.9      106.33     0.29111    
 STRESS PERIOD TIME 3.15619E+07 5.26032E+05  8767.2      365.30      1.0001    
         TOTAL TIME 5.05077E+08 8.41795E+06 1.40299E+05  5845.8      16.005    
1

                               VOLUMETRIC BUDGET FOR SYSTEMS OF DELAY INTERBEDS
                                          AT END OF TIME STEP  6 IN STRESS PERIOD 17

          |   C U M U L A T I V E   V O L U M E S   L**3           | R A T E S   F O R  T H I S  T I M E  S T E P   L**3/T  |
   SYSTEM |    CHANGE IN     BOUNDARY                    PERCENT   |    CHANGE IN     BOUNDARY                    PERCENT   |
   NUMBER |     STORAGE        FLOW           SUM      DISCREPANCY |     STORAGE        FLOW           SUM      DISCREPANCY |
  --------|--------------------------------------------------------|--------------------------------------------------------|
      1     69776.        -69776.        0.78125E-02    0.11197E-04     10.195        -10.195       -0.57220E-05   -0.56125E-04
      2    0.91435E+08   -0.91435E+08     8.0000        0.87494E-05     15978.        -15978.       -0.19531E-02   -0.12224E-04
  --------|--------------------------------------------------------|--------------------------------------------------------|
 TOTALS:    0.91505E+08   -0.91505E+08     8.0000        0.87427E-05     15988.        -15988.       -0.19531E-02   -0.12216E-04
1
                            STRESS PERIOD NO.   18, LENGTH =   365.3000    
                            -----------------------------------------------

                              NUMBER OF TIME STEPS =     6

                               MULTIPLIER FOR DELT =     1.300

                            INITIAL TIME STEP SIZE =   28.63744    

 REUSING NON-PARAMETER WELLS FROM LAST STRESS PERIOD

     14 WELLS
 
 SOLVING FOR HEAD 

    43 ITERATIONS FOR TIME STEP   1 IN STRESS PERIOD   18

 MAXIMUM HEAD CHANGE FOR EACH ITERATION:

    HEAD CHANGE   HEAD CHANGE   HEAD CHANGE   HEAD CHANGE   HEAD CHANGE
  LAYER,ROW,COL LAYER,ROW,COL LAYER,ROW,COL LAYER,ROW,COL LAYER,ROW,COL
 ----------------------------------------------------------------------
      1.633         3.527         2.966        -1.432        -2.980    
  (  3,  1,  7) (  3,  1,  9) (  3,  1,  1) (  3,  1,  4) (  3,  1,  1)
    -0.2654       -0.6647        -1.496        -1.149        0.8317    
  (  3,  1, 10) (  3,  1,  1) (  3,  1, 10) (  3,  3,  1) (  3,  9, 10)
    -0.6432E-01   -0.7614E-02   -0.5183E-02   -0.3928E-02   -0.1763E-02
  (  2,  7,  1) (  3,  3,  6) (  3,  2,  8) (  3,  3,  6) (  3,  1,  1)
    -0.1907E-02    0.5833E-03   -0.1028E-02    0.1390E-02    0.4036E-03
  (  3,  3,  6) (  3,  7, 10) (  3,  3,  6) (  3,  7,  8) (  3,  1,  6)
     0.1277E-02    0.1237E-02    0.1663E-02    0.2110E-02    0.1512E-02
  (  3,  7, 10) (  3,  2,  9) (  3,  9, 10) (  3,  3,  8) (  3,  1,  7)
     0.1020E-02    0.9938E-03    0.6833E-03    0.4917E-03    0.3626E-03
  (  3,  1, 10) (  3,  2,  8) (  3,  1,  6) (  3,  1,  7) (  3,  1,  5)
     0.2375E-03    0.2385E-03    0.1660E-03    0.1172E-03    0.8917E-04
  (  3,  1,  7) (  3,  2,  8) (  3,  2,  8) (  3,  1,  5) (  3,  1,  7)
     0.5918E-04    0.5792E-04    0.4010E-04    0.2900E-04    0.2097E-04
  (  3,  1, 10) (  3,  2,  8) (  3,  1,  6) (  3,  1,  7) (  3,  2,  9)
     0.1451E-04    0.1356E-04    0.9739E-05
  (  3,  1, 10) (  3,  2,  2) (  3,  1,  5)


 OUTPUT CONTROL FOR STRESS PERIOD   18   TIME STEP    1
    SAVE HEAD FOR ALL LAYERS

 HEAD WILL BE SAVED ON UNIT   21 AT END OF TIME STEP    1, STRESS PERIOD   18
 
 SOLVING FOR HEAD 
    42 ITERATIONS FOR TIME STEP   2 IN STRESS PERIOD   18

 MAXIMUM HEAD CHANGE FOR EACH ITERATION:

    HEAD CHANGE   HEAD CHANGE   HEAD CHANGE   HEAD CHANGE   HEAD CHANGE
  LAYER,ROW,COL LAYER,ROW,COL LAYER,ROW,COL LAYER,ROW,COL LAYER,ROW,COL
 ----------------------------------------------------------------------
      1.705         2.931         2.472        -1.174        -3.007    
  (  3,  1,  1) (  3,  1,  9) (  3,  2,  1) (  3,  1,  2) (  3,  1,  1)
    -0.2196       -0.5492        -1.347        0.2445       -0.3512E-01
  (  3,  1, 10) (  3,  1,  1) (  3,  1, 10) (  3, 10,  1) (  2,  1,  1)
    -0.5882E-01   -0.1084E-01   -0.2508E-02   -0.1729E-02   -0.1645E-02
  (  2,  7,  1) (  2,  1,  2) (  3,  5,  3) (  3,  1,  1) (  3,  1,  3)
     0.1410E-02    0.1102E-02    0.2233E-02    0.1321E-02    0.2600E-02
  (  3, 10,  1) (  3,  9, 10) (  3,  1, 10) (  3,  4, 10) (  3,  2,  9)
     0.1488E-02    0.2585E-02    0.2330E-02    0.1790E-02    0.1301E-02
  (  3,  4, 10) (  3,  1, 10) (  3,  1,  5) (  3,  1,  5) (  3,  1,  5)
     0.8310E-03    0.8551E-03    0.6081E-03    0.4097E-03    0.3093E-03
  (  3,  1,  5) (  3,  2,  2) (  3,  1,  5) (  3,  1,  5) (  3,  1,  5)
     0.1897E-03    0.2000E-03    0.1374E-03    0.9831E-04    0.7113E-04
  (  3,  1,  5) (  3,  2,  2) (  3,  1,  5) (  3,  1,  5) (  3,  1,  7)
     0.4607E-04    0.4603E-04    0.3273E-04    0.2292E-04    0.1729E-04
  (  3,  1,  5) (  3,  2,  2) (  3,  1,  5) (  3,  1,  7) (  3,  1,  5)
     0.1058E-04    0.6958E-05
  (  3,  1,  5) (  3,  3, 10)


 OUTPUT CONTROL FOR STRESS PERIOD   18   TIME STEP    2
    SAVE HEAD FOR ALL LAYERS

 HEAD WILL BE SAVED ON UNIT   21 AT END OF TIME STEP    2, STRESS PERIOD   18
 
 SOLVING FOR HEAD 
    40 ITERATIONS FOR TIME STEP   3 IN STRESS PERIOD   18

 MAXIMUM HEAD CHANGE FOR EACH ITERATION:

    HEAD CHANGE   HEAD CHANGE   HEAD CHANGE   HEAD CHANGE   HEAD CHANGE
  LAYER,ROW,COL LAYER,ROW,COL LAYER,ROW,COL LAYER,ROW,COL LAYER,ROW,COL
 ----------------------------------------------------------------------
      1.084         2.460         2.092       -0.8331        -3.003    
  (  3,  1,  1) (  3,  1, 10) (  3,  3,  6) (  3,  2, 10) (  3,  1,  1)
     0.1817       -0.4128        -1.093        0.4866        0.3876E-01
  (  2,  5,  1) (  3,  1,  1) (  3,  1, 10) (  3, 10,  1) (  2, 10,  9)
    -0.4936E-01   -0.1248E-01   -0.5210E-02   -0.1501E-02   -0.1791E-02
  (  2,  7,  1) (  2,  1,  2) (  3,  3,  7) (  3,  7,  4) (  3,  3,  8)
     0.1807E-02    0.1956E-02    0.2004E-02    0.2527E-02    0.3324E-02
  (  3,  1,  3) (  3, 10, 10) (  3,  3,  1) (  3,  9,  9) (  3,  1,  1)
     0.1992E-02    0.2280E-02    0.1581E-02    0.9904E-03    0.7164E-03
  (  3,  1,  1) (  3,  2,  2) (  3,  1,  1) (  3,  1,  1) (  3,  1,  1)
     0.4349E-03    0.4916E-03    0.3372E-03    0.2174E-03    0.1556E-03
  (  3,  1, 10) (  3,  1,  1) (  3,  3,  1) (  3,  1,  1) (  3,  1,  1)
     0.9432E-04    0.1052E-03    0.7433E-04    0.4759E-04    0.3402E-04
  (  3,  1,  1) (  3,  2,  2) (  3,  1,  1) (  3,  1, 10) (  3,  1,  1)
     0.1989E-04    0.2301E-04    0.1649E-04    0.1047E-04    0.5340E-05
  (  3,  1,  1) (  3,  1,  1) (  3,  3,  1) (  3,  1,  1) (  3,  1, 10)


 OUTPUT CONTROL FOR STRESS PERIOD   18   TIME STEP    3
    SAVE HEAD FOR ALL LAYERS

 HEAD WILL BE SAVED ON UNIT   21 AT END OF TIME STEP    3, STRESS PERIOD   18
 
 SOLVING FOR HEAD 
    36 ITERATIONS FOR TIME STEP   4 IN STRESS PERIOD   18

 MAXIMUM HEAD CHANGE FOR EACH ITERATION:

    HEAD CHANGE   HEAD CHANGE   HEAD CHANGE   HEAD CHANGE   HEAD CHANGE
  LAYER,ROW,COL LAYER,ROW,COL LAYER,ROW,COL LAYER,ROW,COL LAYER,ROW,COL
 ----------------------------------------------------------------------
     0.7486         1.719         1.743       -0.7958        -2.981    
  (  3,  1,  4) (  3,  1,  8) (  3,  1,  1) (  3,  1,  3) (  3,  1,  1)
     0.1737        0.6277E-01   -0.2303E-01   -0.1621E-01   -0.1203E-01
  (  3, 10, 10) (  3,  9,  7) (  3,  1,  7) (  3,  1,  8) (  3,  3,  7)
    -0.4840E-02   -0.7086E-02   -0.2501E-02   -0.2167E-02    0.2254E-02
  (  3,  1,  1) (  3,  2,  8) (  3,  7,  5) (  3,  3,  7) (  3,  1,  3)
     0.1787E-02    0.3385E-02    0.2874E-02    0.1816E-02    0.1306E-02
  (  3, 10,  1) (  3,  1,  3) (  3,  2,  2) (  3,  1,  2) (  3,  1,  2)
     0.6880E-03    0.8879E-03    0.6212E-03    0.3763E-03    0.2569E-03
  (  3,  1,  1) (  3,  2,  2) (  3,  1,  1) (  3,  1,  2) (  3,  1,  2)
     0.1408E-03    0.1787E-03    0.1242E-03    0.7509E-04    0.5347E-04
  (  3,  1, 10) (  3,  1,  1) (  3,  1,  4) (  3,  1,  2) (  3,  1,  2)
     0.3032E-04    0.3698E-04    0.2589E-04    0.1521E-04    0.1133E-04
  (  2,  7,  1) (  3,  2,  2) (  3,  1,  1) (  3,  1,  2) (  3,  1,  1)
     0.6333E-05
  (  3,  1,  2)


 OUTPUT CONTROL FOR STRESS PERIOD   18   TIME STEP    4
    SAVE HEAD FOR ALL LAYERS

 HEAD WILL BE SAVED ON UNIT   21 AT END OF TIME STEP    4, STRESS PERIOD   18
 
 SOLVING FOR HEAD 
    31 ITERATIONS FOR TIME STEP   5 IN STRESS PERIOD   18

 MAXIMUM HEAD CHANGE FOR EACH ITERATION:

    HEAD CHANGE   HEAD CHANGE   HEAD CHANGE   HEAD CHANGE   HEAD CHANGE
  LAYER,ROW,COL LAYER,ROW,COL LAYER,ROW,COL LAYER,ROW,COL LAYER,ROW,COL
 ----------------------------------------------------------------------
     0.6667         1.140         1.034       -0.9120        -2.655    
  (  3,  1,  1) (  3,  1,  9) (  3,  2,  1) (  3,  1, 10) (  3,  1,  1)
     0.7277        0.4358        0.1364        0.7051E-01   -0.4754E-01
  (  3, 10,  1) (  3,  9,  3) (  2,  1,  8) (  2, 10,  1) (  2, 10, 10)
     0.7631E-01    0.1318E-01   -0.6736E-02   -0.3521E-02   -0.2377E-02
  (  2,  6,  1) (  2,  1,  2) (  3,  8,  4) (  3,  8,  2) (  3,  9,  7)
    -0.2279E-02   -0.1633E-02   -0.1232E-02   -0.6757E-03   -0.4354E-03
  (  2,  6,  1) (  3,  9,  7) (  3,  8,  3) (  3,  9,  7) (  3,  9,  7)
    -0.1914E-03   -0.2970E-03   -0.2323E-03   -0.1235E-03   -0.8535E-04
  (  3, 10, 10) (  3,  9,  7) (  3,  9,  7) (  3,  9,  7) (  3,  9,  7)
    -0.3501E-04   -0.5790E-04   -0.4268E-04   -0.2458E-04   -0.1589E-04
  (  3,  9,  8) (  3,  9,  7) (  3,  8,  3) (  3,  9,  7) (  3,  9,  7)
    -0.7568E-05
  (  3,  9,  8)


 OUTPUT CONTROL FOR STRESS PERIOD   18   TIME STEP    5
    SAVE HEAD FOR ALL LAYERS

 HEAD WILL BE SAVED ON UNIT   21 AT END OF TIME STEP    5, STRESS PERIOD   18
 
 SOLVING FOR HEAD 
    32 ITERATIONS FOR TIME STEP   6 IN STRESS PERIOD   18

 MAXIMUM HEAD CHANGE FOR EACH ITERATION:

    HEAD CHANGE   HEAD CHANGE   HEAD CHANGE   HEAD CHANGE   HEAD CHANGE
  LAYER,ROW,COL LAYER,ROW,COL LAYER,ROW,COL LAYER,ROW,COL LAYER,ROW,COL
 ----------------------------------------------------------------------
     0.3753        0.6433        0.4824        -1.050        -1.160    
  (  3,  1, 10) (  3,  1,  8) (  3,  2,  1) (  3,  1, 10) (  3,  1,  1)
     0.4967        0.2951        0.8211E-01    0.2763E-01   -0.2633E-01
  (  3,  1, 10) (  3,  2,  2) (  2,  1,  9) (  2, 10,  1) (  2, 10, 10)
     0.2646E-01   -0.1130E-01   -0.9111E-02   -0.4644E-02   -0.2795E-02
  (  2,  7,  1) (  3,  2,  6) (  3,  2,  5) (  3,  2,  7) (  3,  2,  6)
    -0.2432E-02   -0.1871E-02   -0.1597E-02   -0.7897E-03   -0.5015E-03
  (  2,  7,  1) (  3,  2,  6) (  3,  3,  6) (  3,  3,  6) (  3,  3,  6)
    -0.3776E-03   -0.3311E-03   -0.2752E-03   -0.1438E-03   -0.8795E-04
  (  2,  8,  1) (  3,  2,  7) (  3,  3,  6) (  3,  3,  6) (  3,  3,  6)
    -0.3943E-04   -0.5940E-04   -0.5114E-04   -0.2530E-04   -0.1623E-04
  (  2,  8,  1) (  3,  3,  6) (  3,  3,  6) (  3,  3,  6) (  3,  3,  6)
    -0.1105E-04   -0.3954E-05
  (  2,  8,  1) (  3,  2,  7)


 OUTPUT CONTROL FOR STRESS PERIOD   18   TIME STEP    6
    PRINT BUDGET
    PRINT HEAD FOR ALL LAYERS
    SAVE HEAD FOR ALL LAYERS
    SAVE DRAWDOWN FOR ALL LAYERS
1
              HEAD IN LAYER   1 AT END OF TIME STEP   6 IN STRESS PERIOD   18
  ---------------------------------------------------------------------------

           1       2       3       4       5       6       7       8       9      10
 ...................................................................................
   1    20.77   20.42   19.75   19.33   19.13   19.13   19.33   19.75   20.41   20.76
   2    19.75   19.25   18.82   18.52   18.37   18.37   18.52   18.81   19.24   19.74
   3    18.29   17.80   17.43   17.18   17.05   17.05   17.17   17.42   17.79   18.28
   4    16.31   15.87   15.57   15.38   15.28   15.28   15.37   15.56   15.86   16.30
   5    13.49   13.40   13.30   13.21   13.17   13.17   13.21   13.29   13.39   13.48
   6    11.00   10.97   10.94   10.90   10.88   10.88   10.90   10.93   10.97   11.00
   7     8.61    8.59    8.55    8.52    8.50    8.49    8.51    8.55    8.58    8.60
   8     6.28    6.23    6.15    6.06    6.01    6.01    6.06    6.14    6.23    6.28
   9     4.15    4.00    3.73    3.42    3.29    3.29    3.42    3.72    4.00    4.15
  10     2.62    2.24    1.41    0.00    0.00    0.00    0.00    1.41    2.24    2.62
1
              HEAD IN LAYER   2 AT END OF TIME STEP   6 IN STRESS PERIOD   18
  ---------------------------------------------------------------------------

           1       2       3       4       5       6       7       8       9      10
 ...................................................................................
   1    -1.94   -1.92   -1.92   -1.93   -1.94   -1.96   -1.98   -2.00   -2.03   -2.06
   2    -2.04   -0.99   -1.27   -1.75   -2.25   -2.62   -2.59   -2.26   -1.92   -2.23
   3    -2.18   -1.55   -2.03   -2.84   -4.00   -5.57   -5.18   -3.85   -2.91   -2.42
   4    -2.36   -1.90   -2.28   -2.88   -3.64   -4.49   -4.34   -3.63   -3.02   -2.60
   5    -2.56   -2.20   -2.36   -2.63   -2.92   -3.14   -3.17   -3.04   -2.87   -2.79
   6    -2.77   -2.48   -2.53   -2.64   -2.76   -2.85   -2.88   -2.87   -2.86   -2.97
   7    -3.00   -2.86   -2.89   -2.95   -3.01   -3.05   -3.07   -3.07   -3.07   -3.16
   8    -3.23   -3.40   -3.48   -3.55   -3.59   -3.62   -3.61   -3.58   -3.52   -3.36
   9    -3.46   -4.04   -4.25   -4.40   -4.48   -4.49   -4.44   -4.30   -4.11   -3.54
  10    -3.67   -3.72   -3.76   -3.79   -3.81   -3.81   -3.81   -3.78   -3.75   -3.72
1
              HEAD IN LAYER   3 AT END OF TIME STEP   6 IN STRESS PERIOD   18
  ---------------------------------------------------------------------------

           1       2       3       4       5       6       7       8       9      10
 ...................................................................................
   1   -20.48  -20.65  -20.96  -21.37  -21.81  -22.16  -22.32  -22.32  -22.24  -22.18
   2   -20.54  -20.80  -21.31  -22.04  -22.91  -23.68  -23.76  -23.36  -22.95  -22.71
   3   -20.30  -20.68  -21.51  -22.91  -25.14  -28.75  -27.90  -25.20  -23.73  -23.07
   4   -19.21  -19.53  -20.18  -21.19  -22.62  -24.49  -24.23  -22.88  -22.00  -21.57
   5   -17.54  -17.71  -18.05  -18.52  -19.05  -19.51  -19.59  -19.41  -19.19  -19.06
   6   -15.79  -15.87  -16.03  -16.23  -16.44  -16.62  -16.70  -16.71  -16.69  -16.66
   7   -14.26  -14.30  -14.37  -14.46  -14.56  -14.64  -14.70  -14.73  -14.75  -14.75
   8   -13.10  -13.11  -13.15  -13.19  -13.24  -13.28  -13.32  -13.34  -13.36  -13.36
   9   -12.32  -12.33  -12.35  -12.37  -12.40  -12.42  -12.44  -12.46  -12.47  -12.47
  10   -11.93  -11.93  -11.94  -11.96  -11.98  -12.00  -12.01  -12.03  -12.03  -12.04

 HEAD WILL BE SAVED ON UNIT   21 AT END OF TIME STEP    6, STRESS PERIOD   18

 DRAWDOWN WILL BE SAVED ON UNIT   22 AT END OF TIME STEP    6, STRESS PERIOD   18
1
  VOLUMETRIC BUDGET FOR ENTIRE MODEL AT END OF TIME STEP    6, STRESS PERIOD  18
  ------------------------------------------------------------------------------

     CUMULATIVE VOLUMES      L**3       RATES FOR THIS TIME STEP      L**3/T
     ------------------                 ------------------------

           IN:                                      IN:
           ---                                      ---
             STORAGE =    29129848.0000               STORAGE =        3775.3782
       CONSTANT HEAD =      245426.3906         CONSTANT HEAD =          91.2970
               WELLS =   186333008.0000                 WELLS =       30000.0000
    INST. IB STORAGE =    41278504.0000      INST. IB STORAGE =        5272.5044
    DELAY IB STORAGE =    97322816.0000      DELAY IB STORAGE =       15885.7871

            TOTAL IN =   354309632.0000              TOTAL IN =       55024.9648

          OUT:                                     OUT:
          ----                                     ----
             STORAGE =           0.0000               STORAGE =           0.0000
       CONSTANT HEAD =   168006656.0000         CONSTANT HEAD =       25025.0234
               WELLS =   186303008.0000                 WELLS =       30000.0000
    INST. IB STORAGE =           0.0000      INST. IB STORAGE =           0.0000
    DELAY IB STORAGE =           0.0000      DELAY IB STORAGE =           0.0000

           TOTAL OUT =   354309664.0000             TOTAL OUT =       55025.0234

            IN - OUT =         -32.0000              IN - OUT =      -5.8594E-02

 PERCENT DISCREPANCY =          -0.00     PERCENT DISCREPANCY =          -0.00






         TIME SUMMARY AT END OF TIME STEP    6 IN STRESS PERIOD   18
                    SECONDS     MINUTES      HOURS       DAYS        YEARS
                    -----------------------------------------------------------
   TIME STEP LENGTH 9.18681E+06 1.53113E+05  2551.9      106.33     0.29111    
 STRESS PERIOD TIME 3.15619E+07 5.26032E+05  8767.2      365.30      1.0001    
         TOTAL TIME 5.36639E+08 8.94398E+06 1.49066E+05  6211.1      17.005    
1

                               VOLUMETRIC BUDGET FOR SYSTEMS OF DELAY INTERBEDS
                                          AT END OF TIME STEP  6 IN STRESS PERIOD 18

          |   C U M U L A T I V E   V O L U M E S   L**3           | R A T E S   F O R  T H I S  T I M E  S T E P   L**3/T  |
   SYSTEM |    CHANGE IN     BOUNDARY                    PERCENT   |    CHANGE IN     BOUNDARY                    PERCENT   |
   NUMBER |     STORAGE        FLOW           SUM      DISCREPANCY |     STORAGE        FLOW           SUM      DISCREPANCY |
  --------|--------------------------------------------------------|--------------------------------------------------------|
      1     73451.        -73451.        0.78125E-02    0.10636E-04     9.9848        -9.9848        0.47684E-05    0.47756E-04
      2    0.97249E+08   -0.97249E+08     8.0000        0.82263E-05     15876.        -15876.        0.19531E-02    0.12303E-04
  --------|--------------------------------------------------------|--------------------------------------------------------|
 TOTALS:    0.97323E+08   -0.97323E+08     8.0000        0.82201E-05     15886.        -15886.        0.19531E-02    0.12295E-04
1
                            STRESS PERIOD NO.   19, LENGTH =   365.3000    
                            -----------------------------------------------

                              NUMBER OF TIME STEPS =     6

                               MULTIPLIER FOR DELT =     1.300

                            INITIAL TIME STEP SIZE =   28.63744    

 REUSING NON-PARAMETER WELLS FROM LAST STRESS PERIOD

     14 WELLS
 
 SOLVING FOR HEAD 

    44 ITERATIONS FOR TIME STEP   1 IN STRESS PERIOD   19

 MAXIMUM HEAD CHANGE FOR EACH ITERATION:

    HEAD CHANGE   HEAD CHANGE   HEAD CHANGE   HEAD CHANGE   HEAD CHANGE
  LAYER,ROW,COL LAYER,ROW,COL LAYER,ROW,COL LAYER,ROW,COL LAYER,ROW,COL
 ----------------------------------------------------------------------
      1.131         3.955         2.900        -1.418        -2.780    
  (  3,  3, 10) (  3,  1, 10) (  3,  2,  1) (  3,  2, 10) (  3,  1,  1)
    -0.2544       -0.6870        -1.500        -1.163        0.8534    
  (  3,  1, 10) (  3,  1,  1) (  3,  1, 10) (  3,  3,  1) (  3, 10, 10)
    -0.6457E-01    0.7492E-02   -0.4883E-02   -0.3968E-02   -0.1762E-02
  (  2,  7,  1) (  2,  2,  1) (  3,  2,  9) (  3,  3,  7) (  3,  1,  4)
    -0.1801E-02    0.8419E-03   -0.9514E-03    0.1429E-02    0.6574E-03
  (  3,  3,  7) (  3,  8, 10) (  3,  3,  7) (  3,  7,  9) (  3,  1,  9)
     0.1344E-02    0.1285E-02    0.1596E-02    0.2071E-02    0.1571E-02
  (  3,  7, 10) (  3,  1,  9) (  3,  9,  6) (  3,  3,  5) (  3,  1,  9)
     0.1068E-02    0.9759E-03    0.7177E-03    0.5136E-03    0.3841E-03
  (  3,  1,  9) (  3,  1,  9) (  3,  1,  9) (  3,  1,  9) (  3,  1,  9)
     0.2566E-03    0.2475E-03    0.1722E-03    0.1257E-03    0.9386E-04
  (  3,  1,  9) (  3,  1,  9) (  3,  1,  9) (  3,  1,  9) (  3,  1,  9)
     0.6458E-04    0.5725E-04    0.4344E-04    0.3127E-04    0.2231E-04
  (  3,  1,  9) (  3,  1,  9) (  3,  1,  9) (  3,  1,  9) (  3,  1,  9)
     0.1658E-04    0.1505E-04    0.1011E-04    0.3570E-05
  (  3,  1,  9) (  3,  1,  9) (  3,  1,  9) (  3,  1,  9)


 OUTPUT CONTROL FOR STRESS PERIOD   19   TIME STEP    1
    SAVE HEAD FOR ALL LAYERS

 HEAD WILL BE SAVED ON UNIT   21 AT END OF TIME STEP    1, STRESS PERIOD   19
 
 SOLVING FOR HEAD 
    41 ITERATIONS FOR TIME STEP   2 IN STRESS PERIOD   19

 MAXIMUM HEAD CHANGE FOR EACH ITERATION:

    HEAD CHANGE   HEAD CHANGE   HEAD CHANGE   HEAD CHANGE   HEAD CHANGE
  LAYER,ROW,COL LAYER,ROW,COL LAYER,ROW,COL LAYER,ROW,COL LAYER,ROW,COL
 ----------------------------------------------------------------------
      1.267         3.261         2.412        -1.010        -2.956    
  (  3,  1,  1) (  3,  1, 10) (  3,  3,  7) (  3,  1,  6) (  3,  1,  1)
    -0.2057       -0.5527        -1.347        0.2343       -0.3506E-01
  (  3,  1, 10) (  3,  1,  1) (  3,  1, 10) (  3, 10,  1) (  2,  1,  1)
    -0.5896E-01   -0.1069E-01   -0.2899E-02   -0.1802E-02   -0.1845E-02
  (  2,  7,  1) (  2,  1,  2) (  3,  3,  7) (  3,  1,  1) (  3,  3,  7)
     0.1173E-02    0.9006E-03    0.2262E-02    0.1621E-02    0.2688E-02
  (  3, 10,  1) (  3, 10,  3) (  3,  5,  1) (  3,  1, 10) (  3,  2,  1)
     0.1935E-02    0.2613E-02    0.2329E-02    0.1817E-02    0.1288E-02
  (  3,  1, 10) (  3,  2,  2) (  3,  1,  1) (  3,  1, 10) (  3,  1, 10)
     0.8999E-03    0.8399E-03    0.6133E-03    0.4032E-03    0.3159E-03
  (  3,  1, 10) (  3,  2,  5) (  3,  1, 10) (  3,  1, 10) (  3,  1, 10)
     0.1928E-03    0.2028E-03    0.1349E-03    0.9944E-04    0.6979E-04
  (  3,  1, 10) (  3,  1, 10) (  3,  2,  5) (  3,  1, 10) (  3,  1, 10)
     0.5044E-04    0.4567E-04    0.3301E-04    0.2182E-04    0.1747E-04
  (  3,  1, 10) (  3,  2,  5) (  3,  1, 10) (  3,  1, 10) (  3,  1, 10)
     0.9993E-05
  (  3,  1, 10)


 OUTPUT CONTROL FOR STRESS PERIOD   19   TIME STEP    2
    SAVE HEAD FOR ALL LAYERS

 HEAD WILL BE SAVED ON UNIT   21 AT END OF TIME STEP    2, STRESS PERIOD   19
 
 SOLVING FOR HEAD 
    39 ITERATIONS FOR TIME STEP   3 IN STRESS PERIOD   19

 MAXIMUM HEAD CHANGE FOR EACH ITERATION:

    HEAD CHANGE   HEAD CHANGE   HEAD CHANGE   HEAD CHANGE   HEAD CHANGE
  LAYER,ROW,COL LAYER,ROW,COL LAYER,ROW,COL LAYER,ROW,COL LAYER,ROW,COL
 ----------------------------------------------------------------------
      1.046         2.182         2.175       -0.8779        -3.019    
  (  3,  1, 10) (  3,  1,  9) (  3,  2,  1) (  3,  2, 10) (  3,  1,  1)
     0.1659       -0.3956        -1.040        0.4912        0.3735E-01
  (  2,  5,  1) (  3,  1,  1) (  3,  1, 10) (  3, 10,  1) (  2, 10,  9)
    -0.4674E-01   -0.1240E-01   -0.4995E-02   -0.1994E-02   -0.1756E-02
  (  2,  7,  1) (  2,  1,  2) (  3,  3,  7) (  3,  5,  8) (  3,  3,  7)
     0.2192E-02    0.1936E-02    0.1825E-02    0.2517E-02    0.3123E-02
  (  3,  1, 10) (  3, 10,  1) (  3,  3,  1) (  3, 10, 10) (  3,  1,  1)
     0.1862E-02    0.2164E-02    0.1484E-02    0.9321E-03    0.6691E-03
  (  3,  1,  1) (  3,  2,  4) (  3,  1,  1) (  3,  1,  5) (  3,  1,  2)
     0.4035E-03    0.4617E-03    0.3186E-03    0.2019E-03    0.1470E-03
  (  3,  1, 10) (  3,  1,  1) (  3,  2,  4) (  3,  1,  1) (  3,  1,  1)
     0.8792E-04    0.1005E-03    0.6919E-04    0.4360E-04    0.3194E-04
  (  3,  1,  1) (  3,  2,  4) (  3,  1,  1) (  3,  1,  1) (  3,  1, 10)
     0.1885E-04    0.2155E-04    0.1544E-04    0.9428E-05
  (  3,  1, 10) (  3,  1,  1) (  3,  2,  4) (  3,  1,  1)


 OUTPUT CONTROL FOR STRESS PERIOD   19   TIME STEP    3
    SAVE HEAD FOR ALL LAYERS

 HEAD WILL BE SAVED ON UNIT   21 AT END OF TIME STEP    3, STRESS PERIOD   19
 
 SOLVING FOR HEAD 
    36 ITERATIONS FOR TIME STEP   4 IN STRESS PERIOD   19

 MAXIMUM HEAD CHANGE FOR EACH ITERATION:

    HEAD CHANGE   HEAD CHANGE   HEAD CHANGE   HEAD CHANGE   HEAD CHANGE
  LAYER,ROW,COL LAYER,ROW,COL LAYER,ROW,COL LAYER,ROW,COL LAYER,ROW,COL
 ----------------------------------------------------------------------
     0.7886         1.571         1.549       -0.7113        -2.906    
  (  3,  1,  1) (  3,  1,  9) (  3,  2,  3) (  3,  2, 10) (  3,  1,  1)
     0.1612        0.5359E-01   -0.2350E-01   -0.1567E-01   -0.1179E-01
  (  2,  5,  1) (  3,  9,  7) (  3,  1,  7) (  3,  1,  8) (  3,  3,  7)
    -0.4822E-02   -0.6959E-02   -0.2542E-02   -0.2120E-02    0.2303E-02
  (  2,  6,  1) (  3,  2,  8) (  3,  7,  4) (  3,  3,  7) (  3,  1,  1)
     0.1595E-02    0.3612E-02    0.2703E-02    0.1870E-02    0.1287E-02
  (  3, 10,  1) (  3,  1,  1) (  3,  1,  4) (  3,  1,  1) (  3,  1,  1)
     0.7414E-03    0.8522E-03    0.6414E-03    0.3688E-03    0.2691E-03
  (  3,  1,  1) (  3,  2,  2) (  3,  1,  1) (  3,  1,  1) (  3,  1,  1)
     0.1474E-03    0.1836E-03    0.1178E-03    0.8044E-04    0.5409E-04
  (  3,  1,  1) (  3,  1,  1) (  3,  1,  1) (  3,  1,  1) (  3,  1,  1)
     0.3309E-04    0.3464E-04    0.2720E-04    0.1548E-04    0.1249E-04
  (  3,  1,  1) (  3,  2,  2) (  3,  1,  1) (  3,  1, 10) (  3,  1,  1)
     0.6454E-05
  (  3,  1,  1)


 OUTPUT CONTROL FOR STRESS PERIOD   19   TIME STEP    4
    SAVE HEAD FOR ALL LAYERS

 HEAD WILL BE SAVED ON UNIT   21 AT END OF TIME STEP    4, STRESS PERIOD   19
 
 SOLVING FOR HEAD 
    31 ITERATIONS FOR TIME STEP   5 IN STRESS PERIOD   19

 MAXIMUM HEAD CHANGE FOR EACH ITERATION:

    HEAD CHANGE   HEAD CHANGE   HEAD CHANGE   HEAD CHANGE   HEAD CHANGE
  LAYER,ROW,COL LAYER,ROW,COL LAYER,ROW,COL LAYER,ROW,COL LAYER,ROW,COL
 ----------------------------------------------------------------------
     0.6680         1.239         1.025       -0.9039        -2.601    
  (  3,  1,  1) (  3,  1, 10) (  3,  2,  1) (  3,  1, 10) (  3,  1,  1)
     0.7102        0.4246        0.1320        0.6814E-01   -0.4580E-01
  (  3, 10,  1) (  3,  9,  3) (  2,  1,  8) (  2, 10,  1) (  2, 10, 10)
     0.7455E-01    0.1285E-01   -0.6333E-02   -0.3235E-02   -0.2265E-02
  (  2,  6,  1) (  2,  1,  2) (  3,  8,  4) (  3,  8,  2) (  3,  9,  4)
    -0.2255E-02   -0.1529E-02   -0.1134E-02   -0.6429E-03   -0.3964E-03
  (  2,  6,  1) (  3,  9,  8) (  3,  8,  3) (  3,  9,  8) (  3,  9,  8)
    -0.1972E-03   -0.2768E-03   -0.2190E-03   -0.1118E-03   -0.8252E-04
  (  3, 10, 10) (  3,  9,  8) (  3,  9,  8) (  3,  9,  8) (  3,  9,  8)
    -0.3285E-04   -0.5415E-04   -0.3911E-04   -0.2376E-04   -0.1426E-04
  (  2,  2,  1) (  3,  9,  8) (  3,  8,  3) (  3,  9,  8) (  3,  9,  8)
    -0.7216E-05
  (  3,  9,  8)


 OUTPUT CONTROL FOR STRESS PERIOD   19   TIME STEP    5
    SAVE HEAD FOR ALL LAYERS

 HEAD WILL BE SAVED ON UNIT   21 AT END OF TIME STEP    5, STRESS PERIOD   19
 
 SOLVING FOR HEAD 
    32 ITERATIONS FOR TIME STEP   6 IN STRESS PERIOD   19

 MAXIMUM HEAD CHANGE FOR EACH ITERATION:

    HEAD CHANGE   HEAD CHANGE   HEAD CHANGE   HEAD CHANGE   HEAD CHANGE
  LAYER,ROW,COL LAYER,ROW,COL LAYER,ROW,COL LAYER,ROW,COL LAYER,ROW,COL
 ----------------------------------------------------------------------
     0.3528        0.6186        0.5043        -1.027        -1.250    
  (  3,  1, 10) (  3,  1,  9) (  3,  2,  1) (  3,  1, 10) (  3,  1,  1)
     0.5587        0.3433        0.9950E-01    0.3666E-01   -0.3244E-01
  (  3,  1, 10) (  3,  2,  2) (  2,  1,  9) (  2, 10,  1) (  2, 10, 10)
     0.3186E-01   -0.1257E-01   -0.1032E-01   -0.5195E-02   -0.3115E-02
  (  2,  7,  1) (  3,  2,  6) (  3,  3,  5) (  3,  3,  6) (  3,  3,  6)
    -0.2554E-02   -0.2082E-02   -0.1788E-02   -0.8780E-03   -0.5541E-03
  (  2,  7,  1) (  3,  3,  6) (  3,  3,  6) (  3,  3,  6) (  3,  3,  6)
    -0.4263E-03   -0.3633E-03   -0.3055E-03   -0.1575E-03   -0.9469E-04
  (  2,  9,  1) (  3,  3,  6) (  3,  3,  6) (  3,  3,  6) (  3,  3,  6)
    -0.4147E-04   -0.6253E-04   -0.5466E-04   -0.2823E-04   -0.1835E-04
  (  2,  8,  1) (  3,  3,  6) (  3,  3,  6) (  3,  3,  6) (  3,  3,  6)
    -0.1190E-04   -0.4011E-05
  (  2,  9,  1) (  3,  3,  5)


 OUTPUT CONTROL FOR STRESS PERIOD   19   TIME STEP    6
    PRINT BUDGET
    PRINT HEAD FOR ALL LAYERS
    SAVE HEAD FOR ALL LAYERS
    SAVE DRAWDOWN FOR ALL LAYERS
1
              HEAD IN LAYER   1 AT END OF TIME STEP   6 IN STRESS PERIOD   19
  ---------------------------------------------------------------------------

           1       2       3       4       5       6       7       8       9      10
 ...................................................................................
   1    20.68   20.32   19.66   19.24   19.03   19.03   19.23   19.65   20.32   20.67
   2    19.66   19.15   18.73   18.43   18.27   18.27   18.42   18.72   19.14   19.65
   3    18.20   17.70   17.33   17.08   16.96   16.96   17.08   17.32   17.69   18.19
   4    16.22   15.78   15.48   15.29   15.20   15.19   15.28   15.47   15.77   16.21
   5    13.41   13.32   13.22   13.13   13.09   13.09   13.13   13.21   13.31   13.40
   6    10.93   10.90   10.86   10.83   10.81   10.81   10.83   10.86   10.90   10.92
   7     8.55    8.53    8.49    8.46    8.44    8.44    8.46    8.49    8.52    8.54
   8     6.24    6.19    6.10    6.01    5.96    5.96    6.01    6.10    6.18    6.24
   9     4.12    3.97    3.70    3.39    3.26    3.26    3.39    3.69    3.97    4.12
  10     2.60    2.22    1.40    0.00    0.00    0.00    0.00    1.40    2.22    2.59
1
              HEAD IN LAYER   2 AT END OF TIME STEP   6 IN STRESS PERIOD   19
  ---------------------------------------------------------------------------

           1       2       3       4       5       6       7       8       9      10
 ...................................................................................
   1    -2.26   -2.24   -2.24   -2.25   -2.26   -2.28   -2.30   -2.32   -2.35   -2.38
   2    -2.35   -1.33   -1.61   -2.10   -2.60   -2.97   -2.94   -2.61   -2.27   -2.54
   3    -2.49   -1.89   -2.37   -3.18   -4.34   -5.91   -5.52   -4.19   -3.25   -2.73
   4    -2.66   -2.23   -2.61   -3.21   -3.96   -4.81   -4.67   -3.96   -3.34   -2.91
   5    -2.85   -2.51   -2.67   -2.94   -3.23   -3.45   -3.48   -3.35   -3.18   -3.09
   6    -3.06   -2.76   -2.82   -2.93   -3.05   -3.14   -3.17   -3.16   -3.15   -3.26
   7    -3.28   -3.13   -3.16   -3.22   -3.28   -3.32   -3.34   -3.34   -3.35   -3.45
   8    -3.51   -3.65   -3.73   -3.80   -3.85   -3.87   -3.86   -3.83   -3.77   -3.63
   9    -3.73   -4.28   -4.48   -4.64   -4.71   -4.73   -4.67   -4.54   -4.35   -3.81
  10    -3.94   -3.98   -4.02   -4.05   -4.07   -4.08   -4.07   -4.05   -4.02   -3.98
1
              HEAD IN LAYER   3 AT END OF TIME STEP   6 IN STRESS PERIOD   19
  ---------------------------------------------------------------------------

           1       2       3       4       5       6       7       8       9      10
 ...................................................................................
   1   -21.08  -21.25  -21.57  -21.98  -22.42  -22.77  -22.93  -22.93  -22.85  -22.79
   2   -21.14  -21.40  -21.91  -22.64  -23.51  -24.28  -24.36  -23.96  -23.55  -23.32
   3   -20.88  -21.27  -22.10  -23.50  -25.73  -29.34  -28.49  -25.79  -24.32  -23.66
   4   -19.78  -20.09  -20.74  -21.76  -23.19  -25.06  -24.79  -23.45  -22.57  -22.14
   5   -18.08  -18.25  -18.59  -19.06  -19.59  -20.04  -20.13  -19.95  -19.73  -19.60
   6   -16.30  -16.38  -16.53  -16.74  -16.95  -17.12  -17.21  -17.22  -17.20  -17.17
   7   -14.74  -14.78  -14.85  -14.94  -15.04  -15.12  -15.18  -15.21  -15.23  -15.23
   8   -13.55  -13.57  -13.61  -13.65  -13.70  -13.74  -13.78  -13.80  -13.82  -13.82
   9   -12.76  -12.77  -12.79  -12.81  -12.84  -12.86  -12.88  -12.90  -12.91  -12.92
  10   -12.36  -12.37  -12.38  -12.39  -12.41  -12.43  -12.45  -12.46  -12.47  -12.47

 HEAD WILL BE SAVED ON UNIT   21 AT END OF TIME STEP    6, STRESS PERIOD   19

 DRAWDOWN WILL BE SAVED ON UNIT   22 AT END OF TIME STEP    6, STRESS PERIOD   19
1
  VOLUMETRIC BUDGET FOR ENTIRE MODEL AT END OF TIME STEP    6, STRESS PERIOD  19
  ------------------------------------------------------------------------------

     CUMULATIVE VOLUMES      L**3       RATES FOR THIS TIME STEP      L**3/T
     ------------------                 ------------------------

           IN:                                      IN:
           ---                                      ---
             STORAGE =    30492686.0000               STORAGE =        3701.1521
       CONSTANT HEAD =      280155.3125         CONSTANT HEAD =          97.5935
               WELLS =   197292000.0000                 WELLS =       30000.0000
    INST. IB STORAGE =    43197132.0000      INST. IB STORAGE =        5237.3853
    DELAY IB STORAGE =   103103368.0000      DELAY IB STORAGE =       15784.2285

            TOTAL IN =   374365344.0000              TOTAL IN =       54820.3594

          OUT:                                     OUT:
          ----                                     ----
             STORAGE =           0.0000               STORAGE =           0.0000
       CONSTANT HEAD =   177103392.0000         CONSTANT HEAD =       24820.4336
               WELLS =   197262000.0000                 WELLS =       30000.0000
    INST. IB STORAGE =           0.0000      INST. IB STORAGE =           0.0000
    DELAY IB STORAGE =           0.0000      DELAY IB STORAGE =           0.0000

           TOTAL OUT =   374365376.0000             TOTAL OUT =       54820.4336

            IN - OUT =         -32.0000              IN - OUT =      -7.4219E-02

 PERCENT DISCREPANCY =          -0.00     PERCENT DISCREPANCY =          -0.00






         TIME SUMMARY AT END OF TIME STEP    6 IN STRESS PERIOD   19
                    SECONDS     MINUTES      HOURS       DAYS        YEARS
                    -----------------------------------------------------------
   TIME STEP LENGTH 9.18681E+06 1.53113E+05  2551.9      106.33     0.29111    
 STRESS PERIOD TIME 3.15619E+07 5.26032E+05  8767.2      365.30      1.0001    
         TOTAL TIME 5.68201E+08 9.47002E+06 1.57834E+05  6576.4      18.005    
1

                               VOLUMETRIC BUDGET FOR SYSTEMS OF DELAY INTERBEDS
                                          AT END OF TIME STEP  6 IN STRESS PERIOD 19

          |   C U M U L A T I V E   V O L U M E S   L**3           | R A T E S   F O R  T H I S  T I M E  S T E P   L**3/T  |
   SYSTEM |    CHANGE IN     BOUNDARY                    PERCENT   |    CHANGE IN     BOUNDARY                    PERCENT   |
   NUMBER |     STORAGE        FLOW           SUM      DISCREPANCY |     STORAGE        FLOW           SUM      DISCREPANCY |
  --------|--------------------------------------------------------|--------------------------------------------------------|
      1     77060.        -77060.        0.78125E-02    0.10138E-04     9.8696        -9.8696         0.0000         0.0000    
      2    0.10303E+09   -0.10303E+09     8.0000        0.77650E-05     15774.        -15774.        0.19531E-02    0.12382E-04
  --------|--------------------------------------------------------|--------------------------------------------------------|
 TOTALS:    0.10310E+09   -0.10310E+09     8.0000        0.77592E-05     15784.        -15784.        0.19531E-02    0.12374E-04
1
                            STRESS PERIOD NO.   20, LENGTH =   365.3000    
                            -----------------------------------------------

                              NUMBER OF TIME STEPS =     6

                               MULTIPLIER FOR DELT =     1.300

                            INITIAL TIME STEP SIZE =   28.63744    

 REUSING NON-PARAMETER WELLS FROM LAST STRESS PERIOD

     14 WELLS
 
 SOLVING FOR HEAD 

    44 ITERATIONS FOR TIME STEP   1 IN STRESS PERIOD   20

 MAXIMUM HEAD CHANGE FOR EACH ITERATION:

    HEAD CHANGE   HEAD CHANGE   HEAD CHANGE   HEAD CHANGE   HEAD CHANGE
  LAYER,ROW,COL LAYER,ROW,COL LAYER,ROW,COL LAYER,ROW,COL LAYER,ROW,COL
 ----------------------------------------------------------------------
      1.430         4.026         2.901        -1.474        -2.849    
  (  3,  4, 10) (  3,  1, 10) (  3,  1,  1) (  3,  2, 10) (  3,  1,  1)
    -0.2566       -0.6419        -1.425        -1.082        0.8132    
  (  3,  1, 10) (  3,  1,  1) (  3,  1, 10) (  3,  3,  1) (  3,  9, 10)
    -0.6103E-01   -0.7395E-02   -0.4815E-02   -0.3601E-02   -0.1386E-02
  (  2,  7,  1) (  3,  1, 10) (  3,  2,  6) (  3,  1, 10) (  3,  1,  5)
    -0.1607E-02    0.7899E-03   -0.5329E-03    0.1364E-02    0.8603E-03
  (  3,  1, 10) (  3,  9,  1) (  3,  1, 10) (  3,  6,  2) (  3,  2,  3)
     0.1357E-02    0.1417E-02    0.1700E-02    0.1751E-02    0.1548E-02
  (  3,  9,  1) (  3,  2,  3) (  3, 10,  5) (  3,  1,  1) (  3,  2,  3)
     0.1039E-02    0.1042E-02    0.7268E-03    0.5042E-03    0.3853E-03
  (  3,  1,  5) (  3,  2,  3) (  3,  2,  3) (  3,  1,  8) (  3,  1,  5)
     0.2494E-03    0.2580E-03    0.1746E-03    0.1255E-03    0.9273E-04
  (  3,  1,  8) (  3,  2,  3) (  3,  2,  3) (  3,  1,  5) (  3,  1,  8)
     0.6217E-04    0.6107E-04    0.4359E-04    0.3058E-04    0.2280E-04
  (  3,  1,  5) (  3,  2,  3) (  3,  2,  3) (  3,  1,  8) (  3,  2,  3)
     0.1486E-04    0.1521E-04    0.1105E-04    0.4418E-05
  (  3,  1,  8) (  3,  1,  8) (  3,  1,  5) (  3,  1,  5)


 OUTPUT CONTROL FOR STRESS PERIOD   20   TIME STEP    1
    SAVE HEAD FOR ALL LAYERS

 HEAD WILL BE SAVED ON UNIT   21 AT END OF TIME STEP    1, STRESS PERIOD   20
 
 SOLVING FOR HEAD 
    42 ITERATIONS FOR TIME STEP   2 IN STRESS PERIOD   20

 MAXIMUM HEAD CHANGE FOR EACH ITERATION:

    HEAD CHANGE   HEAD CHANGE   HEAD CHANGE   HEAD CHANGE   HEAD CHANGE
  LAYER,ROW,COL LAYER,ROW,COL LAYER,ROW,COL LAYER,ROW,COL LAYER,ROW,COL
 ----------------------------------------------------------------------
      1.723         2.774         2.384        -1.164        -2.924    
  (  3,  1,  1) (  3,  1,  8) (  3,  1,  1) (  3,  1,  3) (  3,  1,  1)
    -0.2022       -0.5242        -1.307        0.2391       -0.3680E-01
  (  3,  1, 10) (  3,  1,  1) (  3,  1, 10) (  3, 10,  1) (  2,  1,  1)
    -0.5721E-01   -0.1153E-01   -0.2268E-02   -0.1761E-02   -0.1678E-02
  (  2,  7,  1) (  2,  1,  2) (  3,  4,  7) (  3,  1,  1) (  3,  2,  6)
     0.1239E-02    0.1001E-02    0.2161E-02    0.1394E-02    0.2568E-02
  (  3, 10,  1) (  3, 10,  7) (  3,  4,  1) (  3,  1,  9) (  3,  5,  1)
     0.1591E-02    0.2548E-02    0.2299E-02    0.1802E-02    0.1337E-02
  (  3,  1,  9) (  3,  5,  2) (  3,  1,  8) (  3,  1,  9) (  3,  1,  9)
     0.8510E-03    0.8459E-03    0.6072E-03    0.4215E-03    0.3081E-03
  (  3,  1,  9) (  3,  2,  9) (  3,  1,  9) (  3,  1,  9) (  3,  1,  8)
     0.1958E-03    0.2022E-03    0.1391E-03    0.9780E-04    0.7310E-04
  (  3,  1,  9) (  3,  1,  9) (  3,  1,  9) (  3,  1,  8) (  3,  1,  9)
     0.4601E-04    0.4575E-04    0.3305E-04    0.2389E-04    0.1661E-04
  (  3,  1,  9) (  3,  2,  9) (  3,  1,  8) (  3,  1,  9) (  3,  1,  8)
     0.1139E-04    0.8071E-05
  (  3,  1,  9) (  3,  1,  8)


 OUTPUT CONTROL FOR STRESS PERIOD   20   TIME STEP    2
    SAVE HEAD FOR ALL LAYERS

 HEAD WILL BE SAVED ON UNIT   21 AT END OF TIME STEP    2, STRESS PERIOD   20
 
 SOLVING FOR HEAD 
    39 ITERATIONS FOR TIME STEP   3 IN STRESS PERIOD   20

 MAXIMUM HEAD CHANGE FOR EACH ITERATION:

    HEAD CHANGE   HEAD CHANGE   HEAD CHANGE   HEAD CHANGE   HEAD CHANGE
  LAYER,ROW,COL LAYER,ROW,COL LAYER,ROW,COL LAYER,ROW,COL LAYER,ROW,COL
 ----------------------------------------------------------------------
      1.317         2.423         1.840       -0.9117        -2.771    
  (  3,  1,  1) (  3,  1, 10) (  3,  4,  3) (  3,  2, 10) (  3,  1,  1)
     0.1599       -0.4017        -1.034        0.4930        0.3750E-01
  (  2,  6,  1) (  3,  1,  1) (  3,  1, 10) (  3,  1, 10) (  2, 10, 10)
    -0.4503E-01   -0.1165E-01   -0.4473E-02   -0.1878E-02   -0.1332E-02
  (  2,  7,  1) (  2,  1,  2) (  3,  2,  7) (  3,  5,  1) (  3,  1,  1)
     0.1224E-02    0.1886E-02    0.1959E-02    0.2448E-02    0.3108E-02
  (  3,  1,  1) (  3, 10, 10) (  3,  1,  5) (  3,  8,  8) (  3,  1,  4)
     0.1739E-02    0.2127E-02    0.1443E-02    0.9414E-03    0.6667E-03
  (  3,  1,  1) (  3,  2,  3) (  3,  2,  3) (  3,  1,  5) (  3,  1,  8)
     0.3913E-03    0.4521E-03    0.3159E-03    0.2006E-03    0.1463E-03
  (  3,  1, 10) (  3,  2,  3) (  3,  1,  5) (  3,  1,  7) (  3,  1,  4)
     0.8243E-04    0.9903E-04    0.6705E-04    0.4425E-04    0.3136E-04
  (  3,  1,  8) (  3,  2,  3) (  3,  3,  5) (  3,  1,  4) (  3,  1,  4)
     0.1908E-04    0.2100E-04    0.1509E-04    0.9413E-05
  (  3,  1,  6) (  3,  2,  2) (  3,  1,  4) (  3,  3,  4)


 OUTPUT CONTROL FOR STRESS PERIOD   20   TIME STEP    3
    SAVE HEAD FOR ALL LAYERS

 HEAD WILL BE SAVED ON UNIT   21 AT END OF TIME STEP    3, STRESS PERIOD   20
 
 SOLVING FOR HEAD 
    36 ITERATIONS FOR TIME STEP   4 IN STRESS PERIOD   20

 MAXIMUM HEAD CHANGE FOR EACH ITERATION:

    HEAD CHANGE   HEAD CHANGE   HEAD CHANGE   HEAD CHANGE   HEAD CHANGE
  LAYER,ROW,COL LAYER,ROW,COL LAYER,ROW,COL LAYER,ROW,COL LAYER,ROW,COL
 ----------------------------------------------------------------------
     0.8739         1.559         1.717       -0.7134        -2.979    
  (  3,  1, 10) (  3,  1,  6) (  3,  2,  1) (  3,  1,  3) (  3,  1,  1)
     0.1865        0.7212E-01   -0.2061E-01   -0.1537E-01   -0.1129E-01
  (  3, 10, 10) (  3,  9,  6) (  3,  1,  7) (  3,  1,  6) (  3,  3,  6)
    -0.4933E-02   -0.6792E-02   -0.2992E-02   -0.2060E-02    0.2220E-02
  (  3,  1, 10) (  3,  3,  7) (  3,  6,  4) (  3,  3,  7) (  3,  1,  1)
     0.1652E-02    0.3363E-02    0.2853E-02    0.1777E-02    0.1269E-02
  (  3, 10, 10) (  3,  1, 10) (  3,  1, 10) (  3,  1,  1) (  3,  1, 10)
     0.6857E-03    0.8655E-03    0.6094E-03    0.3719E-03    0.2587E-03
  (  3,  1,  1) (  3,  1, 10) (  3,  1,  1) (  3,  1, 10) (  3,  1, 10)
     0.1517E-03    0.1738E-03    0.1244E-03    0.7479E-04    0.5310E-04
  (  3,  1, 10) (  3,  1,  1) (  3,  1, 10) (  3,  1, 10) (  3,  1, 10)
     0.3066E-04    0.3680E-04    0.2520E-04    0.1681E-04    0.1119E-04
  (  2,  7,  1) (  3,  1, 10) (  3,  1,  1) (  3,  1, 10) (  3,  1, 10)
     0.5699E-05
  (  2,  6,  1)


 OUTPUT CONTROL FOR STRESS PERIOD   20   TIME STEP    4
    SAVE HEAD FOR ALL LAYERS

 HEAD WILL BE SAVED ON UNIT   21 AT END OF TIME STEP    4, STRESS PERIOD   20
 
 SOLVING FOR HEAD 
    31 ITERATIONS FOR TIME STEP   5 IN STRESS PERIOD   20

 MAXIMUM HEAD CHANGE FOR EACH ITERATION:

    HEAD CHANGE   HEAD CHANGE   HEAD CHANGE   HEAD CHANGE   HEAD CHANGE
  LAYER,ROW,COL LAYER,ROW,COL LAYER,ROW,COL LAYER,ROW,COL LAYER,ROW,COL
 ----------------------------------------------------------------------
     0.5887         1.044         1.052       -0.8621        -2.618    
  (  3,  1, 10) (  3,  1,  9) (  3,  1,  1) (  3,  2, 10) (  3,  1,  1)
     0.7002        0.4128        0.1338        0.6842E-01   -0.4661E-01
  (  3, 10,  1) (  3,  9,  3) (  2,  1,  8) (  2, 10,  1) (  2, 10, 10)
     0.7499E-01    0.1261E-01   -0.6197E-02   -0.3243E-02   -0.2146E-02
  (  2,  6,  1) (  2,  1,  2) (  3,  7,  3) (  3,  7,  2) (  3,  8,  3)
    -0.2247E-02   -0.1449E-02   -0.1123E-02   -0.6130E-03   -0.3927E-03
  (  2,  6,  1) (  3,  8,  3) (  3,  7,  3) (  3,  7,  3) (  3,  7,  3)
    -0.1748E-03   -0.2684E-03   -0.2147E-03   -0.1151E-03   -0.7723E-04
  (  3, 10,  4) (  3,  8,  2) (  3,  7,  3) (  3,  7,  2) (  3,  7,  3)
    -0.3141E-04   -0.5172E-04   -0.4011E-04   -0.2272E-04   -0.1425E-04
  (  3, 10,  7) (  3,  7,  3) (  3,  7,  3) (  3,  7,  3) (  3,  7,  3)
    -0.6429E-05
  (  3,  7,  3)


 OUTPUT CONTROL FOR STRESS PERIOD   20   TIME STEP    5
    SAVE HEAD FOR ALL LAYERS

 HEAD WILL BE SAVED ON UNIT   21 AT END OF TIME STEP    5, STRESS PERIOD   20
 
 SOLVING FOR HEAD 
    32 ITERATIONS FOR TIME STEP   6 IN STRESS PERIOD   20

 MAXIMUM HEAD CHANGE FOR EACH ITERATION:

    HEAD CHANGE   HEAD CHANGE   HEAD CHANGE   HEAD CHANGE   HEAD CHANGE
  LAYER,ROW,COL LAYER,ROW,COL LAYER,ROW,COL LAYER,ROW,COL LAYER,ROW,COL
 ----------------------------------------------------------------------
     0.4118        0.5741        0.4749        -1.027        -1.227    
  (  3,  1, 10) (  3,  2,  7) (  3,  1,  1) (  3,  1, 10) (  3,  1,  1)
     0.5588        0.3429        0.9908E-01    0.3618E-01   -0.3246E-01
  (  3,  1, 10) (  3,  2,  2) (  2,  1,  9) (  2, 10,  1) (  2, 10, 10)
     0.3194E-01   -0.1255E-01   -0.1034E-01   -0.5192E-02   -0.3111E-02
  (  2,  7,  1) (  3,  2,  6) (  3,  3,  5) (  3,  3,  6) (  3,  3,  6)
    -0.2562E-02   -0.2078E-02   -0.1786E-02   -0.8761E-03   -0.5518E-03
  (  2,  7,  1) (  3,  3,  6) (  3,  3,  6) (  3,  3,  6) (  3,  3,  6)
    -0.4320E-03   -0.3631E-03   -0.3043E-03   -0.1574E-03   -0.9509E-04
  (  2,  9,  1) (  3,  3,  6) (  3,  3,  6) (  3,  3,  6) (  3,  3,  6)
    -0.4133E-04   -0.6312E-04   -0.5395E-04   -0.2781E-04   -0.1676E-04
  (  2,  8,  1) (  3,  3,  6) (  3,  3,  6) (  3,  3,  6) (  3,  3,  6)
    -0.1197E-04   -0.4575E-05
  (  2,  9,  1) (  3,  3,  6)


 OUTPUT CONTROL FOR STRESS PERIOD   20   TIME STEP    6
    PRINT BUDGET
    PRINT HEAD FOR ALL LAYERS
    SAVE HEAD FOR ALL LAYERS
    SAVE DRAWDOWN FOR ALL LAYERS
1
              HEAD IN LAYER   1 AT END OF TIME STEP   6 IN STRESS PERIOD   20
  ---------------------------------------------------------------------------

           1       2       3       4       5       6       7       8       9      10
 ...................................................................................
   1    20.58   20.23   19.56   19.14   18.93   18.93   19.14   19.56   20.22   20.57
   2    19.56   19.06   18.63   18.33   18.18   18.18   18.33   18.63   19.05   19.56
   3    18.11   17.61   17.24   16.99   16.87   16.86   16.99   17.23   17.60   18.10
   4    16.13   15.70   15.40   15.21   15.11   15.11   15.20   15.39   15.69   16.12
   5    13.33   13.24   13.14   13.05   13.01   13.01   13.05   13.13   13.23   13.32
   6    10.86   10.83   10.80   10.76   10.74   10.74   10.76   10.79   10.83   10.85
   7     8.49    8.47    8.43    8.40    8.38    8.38    8.40    8.43    8.46    8.49
   8     6.19    6.14    6.06    5.97    5.92    5.92    5.97    6.05    6.14    6.19
   9     4.09    3.94    3.67    3.37    3.24    3.24    3.36    3.67    3.93    4.08
  10     2.57    2.20    1.39    0.00    0.00    0.00    0.00    1.39    2.20    2.57
1
              HEAD IN LAYER   2 AT END OF TIME STEP   6 IN STRESS PERIOD   20
  ---------------------------------------------------------------------------

           1       2       3       4       5       6       7       8       9      10
 ...................................................................................
   1    -2.57   -2.56   -2.56   -2.57   -2.58   -2.60   -2.62   -2.64   -2.66   -2.69
   2    -2.66   -1.67   -1.96   -2.44   -2.94   -3.31   -3.28   -2.95   -2.61   -2.85
   3    -2.80   -2.22   -2.70   -3.51   -4.68   -6.25   -5.86   -4.53   -3.58   -3.03
   4    -2.96   -2.54   -2.93   -3.53   -4.29   -5.14   -4.99   -4.28   -3.66   -3.21
   5    -3.15   -2.81   -2.97   -3.25   -3.53   -3.76   -3.79   -3.65   -3.49   -3.38
   6    -3.35   -3.05   -3.10   -3.22   -3.34   -3.43   -3.46   -3.45   -3.44   -3.55
   7    -3.56   -3.40   -3.43   -3.49   -3.55   -3.59   -3.61   -3.61   -3.62   -3.73
   8    -3.78   -3.91   -3.98   -4.05   -4.10   -4.12   -4.11   -4.08   -4.03   -3.91
   9    -4.00   -4.52   -4.72   -4.87   -4.95   -4.96   -4.91   -4.78   -4.59   -4.08
  10    -4.20   -4.25   -4.28   -4.31   -4.33   -4.34   -4.33   -4.31   -4.28   -4.25
1
              HEAD IN LAYER   3 AT END OF TIME STEP   6 IN STRESS PERIOD   20
  ---------------------------------------------------------------------------

           1       2       3       4       5       6       7       8       9      10
 ...................................................................................
   1   -21.68  -21.85  -22.16  -22.58  -23.02  -23.37  -23.53  -23.53  -23.45  -23.39
   2   -21.73  -21.98  -22.50  -23.23  -24.10  -24.88  -24.96  -24.55  -24.15  -23.91
   3   -21.46  -21.84  -22.68  -24.08  -26.31  -29.92  -29.07  -26.37  -24.90  -24.24
   4   -20.33  -20.65  -21.30  -22.32  -23.75  -25.62  -25.35  -24.01  -23.13  -22.70
   5   -18.61  -18.78  -19.12  -19.59  -20.13  -20.58  -20.67  -20.48  -20.27  -20.14
   6   -16.80  -16.88  -17.04  -17.24  -17.46  -17.63  -17.72  -17.73  -17.71  -17.68
   7   -15.23  -15.26  -15.33  -15.43  -15.52  -15.61  -15.67  -15.70  -15.71  -15.71
   8   -14.01  -14.03  -14.07  -14.11  -14.16  -14.20  -14.24  -14.26  -14.28  -14.28
   9   -13.20  -13.21  -13.23  -13.26  -13.28  -13.31  -13.33  -13.35  -13.36  -13.36
  10   -12.80  -12.80  -12.81  -12.83  -12.85  -12.87  -12.88  -12.90  -12.91  -12.91

 HEAD WILL BE SAVED ON UNIT   21 AT END OF TIME STEP    6, STRESS PERIOD   20

 DRAWDOWN WILL BE SAVED ON UNIT   22 AT END OF TIME STEP    6, STRESS PERIOD   20
1
  VOLUMETRIC BUDGET FOR ENTIRE MODEL AT END OF TIME STEP    6, STRESS PERIOD  20
  ------------------------------------------------------------------------------

     CUMULATIVE VOLUMES      L**3       RATES FOR THIS TIME STEP      L**3/T
     ------------------                 ------------------------

           IN:                                      IN:
           ---                                      ---
             STORAGE =    31829114.0000               STORAGE =        3629.9509
       CONSTANT HEAD =      317182.7500         CONSTANT HEAD =         103.8822
               WELLS =   208250992.0000                 WELLS =       30000.0000
    INST. IB STORAGE =    45103244.0000      INST. IB STORAGE =        5203.3330
    DELAY IB STORAGE =   108846600.0000      DELAY IB STORAGE =       15682.1621

            TOTAL IN =   394347136.0000              TOTAL IN =       54619.3281

          OUT:                                     OUT:
          ----                                     ----
             STORAGE =           0.0000               STORAGE =           0.0000
       CONSTANT HEAD =   186126208.0000         CONSTANT HEAD =       24619.4531
               WELLS =   208220992.0000                 WELLS =       30000.0000
    INST. IB STORAGE =           0.0000      INST. IB STORAGE =           0.0000
    DELAY IB STORAGE =           0.0000      DELAY IB STORAGE =           0.0000

           TOTAL OUT =   394347200.0000             TOTAL OUT =       54619.4531

            IN - OUT =         -64.0000              IN - OUT =          -0.1250

 PERCENT DISCREPANCY =          -0.00     PERCENT DISCREPANCY =          -0.00






         TIME SUMMARY AT END OF TIME STEP    6 IN STRESS PERIOD   20
                    SECONDS     MINUTES      HOURS       DAYS        YEARS
                    -----------------------------------------------------------
   TIME STEP LENGTH 9.18681E+06 1.53113E+05  2551.9      106.33     0.29111    
 STRESS PERIOD TIME 3.15619E+07 5.26032E+05  8767.2      365.30      1.0001    
         TOTAL TIME 5.99763E+08 9.99605E+06 1.66601E+05  6941.7      19.005    
1

                               VOLUMETRIC BUDGET FOR SYSTEMS OF DELAY INTERBEDS
                                          AT END OF TIME STEP  6 IN STRESS PERIOD 20

          |   C U M U L A T I V E   V O L U M E S   L**3           | R A T E S   F O R  T H I S  T I M E  S T E P   L**3/T  |
   SYSTEM |    CHANGE IN     BOUNDARY                    PERCENT   |    CHANGE IN     BOUNDARY                    PERCENT   |
   NUMBER |     STORAGE        FLOW           SUM      DISCREPANCY |     STORAGE        FLOW           SUM      DISCREPANCY |
  --------|--------------------------------------------------------|--------------------------------------------------------|
      1     80592.        -80592.        0.78125E-02    0.96939E-05     9.7081        -9.7081        0.38147E-05    0.39294E-04
      2    0.10877E+09   -0.10877E+09     8.0000        0.73552E-05     15672.        -15672.        0.39062E-02    0.24924E-04
  --------|--------------------------------------------------------|--------------------------------------------------------|
 TOTALS:    0.10885E+09   -0.10885E+09     8.0000        0.73498E-05     15682.        -15682.        0.39062E-02    0.24909E-04
1
                            STRESS PERIOD NO.   21, LENGTH =   365.3000    
                            -----------------------------------------------

                              NUMBER OF TIME STEPS =     6

                               MULTIPLIER FOR DELT =     1.300

                            INITIAL TIME STEP SIZE =   28.63744    

 REUSING NON-PARAMETER WELLS FROM LAST STRESS PERIOD

     14 WELLS
 
 SOLVING FOR HEAD 

    44 ITERATIONS FOR TIME STEP   1 IN STRESS PERIOD   21

 MAXIMUM HEAD CHANGE FOR EACH ITERATION:

    HEAD CHANGE   HEAD CHANGE   HEAD CHANGE   HEAD CHANGE   HEAD CHANGE
  LAYER,ROW,COL LAYER,ROW,COL LAYER,ROW,COL LAYER,ROW,COL LAYER,ROW,COL
 ----------------------------------------------------------------------
      1.515         3.841         2.452        -1.315        -2.710    
  (  3,  1,  1) (  3,  1, 10) (  3,  3,  5) (  3,  2, 10) (  3,  1,  1)
    -0.2439       -0.6414        -1.429        -1.098        0.8292    
  (  3,  1, 10) (  3,  1,  1) (  3,  1, 10) (  3,  3,  1) (  3, 10, 10)
    -0.5849E-01   -0.7083E-02   -0.4799E-02   -0.3379E-02   -0.1498E-02
  (  2,  7,  1) (  3,  1, 10) (  3,  2,  5) (  3,  1, 10) (  3,  2,  1)
    -0.1474E-02    0.1011E-02   -0.5551E-03    0.1408E-02    0.6220E-03
  (  3,  1, 10) (  3, 10, 10) (  3,  4,  7) (  3,  5, 10) (  3,  1,  3)
     0.1270E-02    0.1207E-02    0.1733E-02    0.1780E-02    0.1505E-02
  (  3, 10,  1) (  3,  1,  3) (  3, 10, 10) (  3,  1,  1) (  3,  1,  3)
     0.1006E-02    0.9654E-03    0.6883E-03    0.4947E-03    0.3700E-03
  (  3,  1,  3) (  3,  1,  3) (  3,  1,  3) (  3,  1,  3) (  3,  1,  3)
     0.2458E-03    0.2371E-03    0.1685E-03    0.1206E-03    0.9142E-04
  (  3,  1,  3) (  3,  1,  3) (  3,  1,  3) (  3,  1,  3) (  3,  1,  3)
     0.6065E-04    0.5767E-04    0.4036E-04    0.3090E-04    0.2124E-04
  (  3,  1,  3) (  3,  1,  3) (  3,  1,  3) (  3,  1,  3) (  3,  1,  3)
     0.1604E-04    0.1347E-04    0.1056E-04    0.4129E-05
  (  3,  1,  3) (  3,  1,  3) (  3,  1,  3) (  3,  1,  3)


 OUTPUT CONTROL FOR STRESS PERIOD   21   TIME STEP    1
    SAVE HEAD FOR ALL LAYERS

 HEAD WILL BE SAVED ON UNIT   21 AT END OF TIME STEP    1, STRESS PERIOD   21
 
 SOLVING FOR HEAD 
    42 ITERATIONS FOR TIME STEP   2 IN STRESS PERIOD   21

 MAXIMUM HEAD CHANGE FOR EACH ITERATION:

    HEAD CHANGE   HEAD CHANGE   HEAD CHANGE   HEAD CHANGE   HEAD CHANGE
  LAYER,ROW,COL LAYER,ROW,COL LAYER,ROW,COL LAYER,ROW,COL LAYER,ROW,COL
 ----------------------------------------------------------------------
      1.444         2.708         2.386        -1.023        -2.910    
  (  3,  1, 10) (  3,  1,  8) (  3,  3,  3) (  3,  1,  2) (  3,  1,  1)
    -0.1966       -0.5085        -1.267        0.2255       -0.3718E-01
  (  3,  1, 10) (  3,  1,  1) (  3,  1, 10) (  3, 10,  1) (  2,  1,  1)
    -0.5347E-01   -0.1163E-01   -0.2556E-02   -0.1540E-02   -0.1590E-02
  (  2,  7,  1) (  2,  1,  2) (  3,  4,  4) (  3,  1,  1) (  3,  4,  6)
     0.1229E-02    0.5199E-03    0.2158E-02    0.1150E-02    0.2538E-02
  (  3, 10,  1) (  3,  8,  4) (  3,  5,  1) (  3,  1,  7) (  3,  3,  1)
     0.1349E-02    0.2460E-02    0.2204E-02    0.1654E-02    0.1216E-02
  (  3,  1,  7) (  3,  3,  2) (  3,  2,  8) (  3,  1,  4) (  3,  1,  4)
     0.7619E-03    0.7959E-03    0.5595E-03    0.3854E-03    0.2833E-03
  (  3,  1,  4) (  3,  2,  5) (  3,  1,  4) (  3,  1,  4) (  3,  1,  4)
     0.1771E-03    0.1853E-03    0.1292E-03    0.9080E-04    0.6740E-04
  (  3,  1,  4) (  3,  2,  5) (  3,  1,  4) (  3,  1,  4) (  3,  1,  4)
     0.4191E-04    0.4261E-04    0.2994E-04    0.2177E-04    0.1498E-04
  (  3,  1,  4) (  3,  2,  8) (  3,  1,  4) (  3,  1,  4) (  3,  1,  4)
     0.1035E-04    0.5689E-05
  (  3,  1,  4) (  3,  1,  4)


 OUTPUT CONTROL FOR STRESS PERIOD   21   TIME STEP    2
    SAVE HEAD FOR ALL LAYERS

 HEAD WILL BE SAVED ON UNIT   21 AT END OF TIME STEP    2, STRESS PERIOD   21
 
 SOLVING FOR HEAD 
    40 ITERATIONS FOR TIME STEP   3 IN STRESS PERIOD   21

 MAXIMUM HEAD CHANGE FOR EACH ITERATION:

    HEAD CHANGE   HEAD CHANGE   HEAD CHANGE   HEAD CHANGE   HEAD CHANGE
  LAYER,ROW,COL LAYER,ROW,COL LAYER,ROW,COL LAYER,ROW,COL LAYER,ROW,COL
 ----------------------------------------------------------------------
     0.8199         2.327         2.218       -0.7930        -2.952    
  (  3,  1,  5) (  3,  1, 10) (  3,  1,  1) (  3,  1,  3) (  3,  1,  1)
     0.1708       -0.3832        -1.033        0.4775        0.3530E-01
  (  2,  5,  1) (  3,  1,  1) (  3,  1, 10) (  3, 10,  1) (  2, 10,  9)
    -0.4711E-01   -0.1325E-01   -0.4715E-02   -0.1495E-02   -0.1653E-02
  (  2,  7,  1) (  2,  1,  2) (  3,  3,  7) (  3,  7,  6) (  3,  3,  7)
     0.1609E-02    0.1846E-02    0.2257E-02    0.2631E-02    0.3164E-02
  (  3,  1, 10) (  3, 10,  3) (  3,  2,  1) (  3, 10,  7) (  3,  1,  3)
     0.1794E-02    0.2173E-02    0.1469E-02    0.9495E-03    0.6715E-03
  (  3,  1,  1) (  3,  2,  3) (  3,  2,  1) (  3,  1,  3) (  3,  1,  5)
     0.3880E-03    0.4580E-03    0.3184E-03    0.2019E-03    0.1490E-03
  (  3,  1,  3) (  3,  2,  3) (  3,  1,  5) (  3,  1,  5) (  3,  1,  3)
     0.8233E-04    0.9930E-04    0.6838E-04    0.4468E-04    0.3175E-04
  (  3,  1,  1) (  3,  2,  3) (  3,  2,  1) (  3,  1,  3) (  3,  1,  3)
     0.1808E-04    0.2127E-04    0.1522E-04    0.1020E-04    0.1794E-05
  (  3,  1,  3) (  3,  1,  5) (  3,  3,  3) (  3,  1,  6) (  3,  1,  6)


 OUTPUT CONTROL FOR STRESS PERIOD   21   TIME STEP    3
    SAVE HEAD FOR ALL LAYERS

 HEAD WILL BE SAVED ON UNIT   21 AT END OF TIME STEP    3, STRESS PERIOD   21
 
 SOLVING FOR HEAD 
    36 ITERATIONS FOR TIME STEP   4 IN STRESS PERIOD   21

 MAXIMUM HEAD CHANGE FOR EACH ITERATION:

    HEAD CHANGE   HEAD CHANGE   HEAD CHANGE   HEAD CHANGE   HEAD CHANGE
  LAYER,ROW,COL LAYER,ROW,COL LAYER,ROW,COL LAYER,ROW,COL LAYER,ROW,COL
 ----------------------------------------------------------------------
     0.9087         1.394         1.637       -0.7432        -2.829    
  (  3,  1, 10) (  3,  1,  3) (  3,  1,  1) (  3,  1,  5) (  3,  1,  1)
     0.1546        0.4906E-01   -0.2232E-01   -0.1499E-01   -0.1058E-01
  (  2,  5,  1) (  2, 10,  2) (  3,  2,  6) (  3,  2,  6) (  3,  3,  6)
    -0.4850E-02   -0.6513E-02   -0.2391E-02   -0.1834E-02    0.2215E-02
  (  3,  1, 10) (  3,  2,  7) (  3,  8,  7) (  3,  3,  7) (  3,  1,  1)
     0.1473E-02    0.3120E-02    0.2878E-02    0.1823E-02    0.1301E-02
  (  3, 10,  1) (  3,  1,  9) (  3,  1, 10) (  3,  1, 10) (  3,  1, 10)
     0.6956E-03    0.8854E-03    0.5879E-03    0.3814E-03    0.2687E-03
  (  3,  1, 10) (  3,  1, 10) (  3,  1,  7) (  3,  1, 10) (  3,  1, 10)
     0.1557E-03    0.1652E-03    0.1266E-03    0.7770E-04    0.5525E-04
  (  3,  1, 10) (  3,  2, 10) (  3,  1, 10) (  3,  1, 10) (  3,  1,  6)
     0.3097E-04    0.3630E-04    0.2480E-04    0.1669E-04    0.1213E-04
  (  3,  1, 10) (  3,  1, 10) (  3,  1,  7) (  3,  1, 10) (  3,  1, 10)
     0.6711E-05
  (  3,  1, 10)


 OUTPUT CONTROL FOR STRESS PERIOD   21   TIME STEP    4
    SAVE HEAD FOR ALL LAYERS

 HEAD WILL BE SAVED ON UNIT   21 AT END OF TIME STEP    4, STRESS PERIOD   21
 
 SOLVING FOR HEAD 
    31 ITERATIONS FOR TIME STEP   5 IN STRESS PERIOD   21

 MAXIMUM HEAD CHANGE FOR EACH ITERATION:

    HEAD CHANGE   HEAD CHANGE   HEAD CHANGE   HEAD CHANGE   HEAD CHANGE
  LAYER,ROW,COL LAYER,ROW,COL LAYER,ROW,COL LAYER,ROW,COL LAYER,ROW,COL
 ----------------------------------------------------------------------
     0.5874         1.188         1.008       -0.8862        -2.538    
  (  3,  1,  1) (  3,  1, 10) (  3,  3,  3) (  3,  1, 10) (  3,  1,  1)
     0.6793        0.4024        0.1322        0.6808E-01   -0.4611E-01
  (  3,  1, 10) (  3,  9,  3) (  2,  1,  8) (  2, 10,  1) (  2, 10, 10)
     0.7457E-01    0.1261E-01   -0.6170E-02   -0.3246E-02   -0.2148E-02
  (  2,  6,  1) (  2,  1,  2) (  3,  7,  2) (  3,  7,  1) (  3,  7,  2)
    -0.1990E-02   -0.1452E-02   -0.1121E-02   -0.6162E-03   -0.3897E-03
  (  2,  6,  1) (  3,  7,  2) (  3,  7,  2) (  3,  7,  2) (  3,  7,  2)
    -0.1769E-03   -0.2709E-03   -0.2140E-03   -0.1125E-03   -0.7710E-04
  (  3, 10, 10) (  3,  7,  2) (  3,  7,  2) (  3,  7,  2) (  3,  7,  2)
    -0.2894E-04   -0.5140E-04   -0.3960E-04   -0.2239E-04   -0.1410E-04
  (  3,  7,  1) (  3,  7,  2) (  3,  7,  2) (  3,  8,  4) (  3,  7,  1)
    -0.5734E-05
  (  3,  7,  2)


 OUTPUT CONTROL FOR STRESS PERIOD   21   TIME STEP    5
    SAVE HEAD FOR ALL LAYERS

 HEAD WILL BE SAVED ON UNIT   21 AT END OF TIME STEP    5, STRESS PERIOD   21
 
 SOLVING FOR HEAD 
    32 ITERATIONS FOR TIME STEP   6 IN STRESS PERIOD   21

 MAXIMUM HEAD CHANGE FOR EACH ITERATION:

    HEAD CHANGE   HEAD CHANGE   HEAD CHANGE   HEAD CHANGE   HEAD CHANGE
  LAYER,ROW,COL LAYER,ROW,COL LAYER,ROW,COL LAYER,ROW,COL LAYER,ROW,COL
 ----------------------------------------------------------------------
     0.3712        0.5728        0.4496       -0.9862        -1.189    
  (  3,  1,  1) (  3,  2,  9) (  3,  3,  3) (  3,  1, 10) (  3,  1,  1)
     0.5432        0.3304        0.9598E-01    0.3518E-01   -0.3162E-01
  (  3,  1, 10) (  3,  2,  2) (  2,  1,  9) (  2, 10,  1) (  2, 10, 10)
     0.3095E-01   -0.1230E-01   -0.1009E-01   -0.5080E-02   -0.3028E-02
  (  2,  7,  1) (  3,  2,  6) (  3,  3,  5) (  3,  3,  6) (  3,  3,  6)
    -0.2495E-02   -0.2029E-02   -0.1745E-02   -0.8509E-03   -0.5394E-03
  (  2,  7,  1) (  3,  3,  6) (  3,  3,  6) (  3,  3,  6) (  3,  3,  6)
    -0.4134E-03   -0.3522E-03   -0.2962E-03   -0.1521E-03   -0.9117E-04
  (  2,  9,  1) (  3,  3,  6) (  3,  3,  6) (  3,  3,  6) (  3,  3,  6)
    -0.4004E-04   -0.6106E-04   -0.5251E-04   -0.2682E-04   -0.1660E-04
  (  2,  8,  1) (  3,  3,  6) (  3,  3,  6) (  3,  3,  6) (  3,  3,  7)
    -0.1155E-04   -0.4181E-05
  (  2,  9,  1) (  3,  3,  7)


 OUTPUT CONTROL FOR STRESS PERIOD   21   TIME STEP    6
    PRINT BUDGET
    PRINT HEAD FOR ALL LAYERS
    SAVE HEAD FOR ALL LAYERS
    SAVE DRAWDOWN FOR ALL LAYERS
1
              HEAD IN LAYER   1 AT END OF TIME STEP   6 IN STRESS PERIOD   21
  ---------------------------------------------------------------------------

           1       2       3       4       5       6       7       8       9      10
 ...................................................................................
   1    20.49   20.14   19.47   19.05   18.84   18.84   19.04   19.46   20.13   20.48
   2    19.47   18.97   18.54   18.24   18.09   18.09   18.24   18.53   18.96   19.46
   3    18.02   17.53   17.15   16.91   16.78   16.78   16.90   17.14   17.52   18.01
   4    16.05   15.61   15.31   15.12   15.03   15.02   15.12   15.30   15.60   16.04
   5    13.25   13.16   13.06   12.98   12.93   12.93   12.97   13.05   13.15   13.24
   6    10.79   10.77   10.73   10.69   10.67   10.67   10.69   10.72   10.76   10.79
   7     8.43    8.41    8.38    8.34    8.32    8.32    8.34    8.37    8.41    8.43
   8     6.15    6.10    6.01    5.93    5.88    5.88    5.93    6.01    6.09    6.14
   9     4.05    3.91    3.64    3.34    3.21    3.21    3.34    3.64    3.90    4.05
  10     2.55    2.18    1.38    0.00    0.00    0.00    0.00    1.38    2.18    2.55
1
              HEAD IN LAYER   2 AT END OF TIME STEP   6 IN STRESS PERIOD   21
  ---------------------------------------------------------------------------

           1       2       3       4       5       6       7       8       9      10
 ...................................................................................
   1    -2.88   -2.87   -2.87   -2.88   -2.89   -2.91   -2.93   -2.95   -2.97   -3.01
   2    -2.97   -2.00   -2.29   -2.78   -3.27   -3.65   -3.62   -3.29   -2.94   -3.16
   3    -3.10   -2.54   -3.03   -3.84   -5.01   -6.58   -6.19   -4.86   -3.91   -3.33
   4    -3.26   -2.86   -3.25   -3.85   -4.61   -5.45   -5.31   -4.60   -3.98   -3.50
   5    -3.44   -3.11   -3.28   -3.55   -3.84   -4.06   -4.09   -3.96   -3.79   -3.67
   6    -3.64   -3.34   -3.39   -3.51   -3.62   -3.71   -3.75   -3.74   -3.72   -3.84
   7    -3.84   -3.67   -3.70   -3.76   -3.82   -3.86   -3.88   -3.88   -3.89   -4.01
   8    -4.06   -4.16   -4.24   -4.30   -4.35   -4.37   -4.37   -4.34   -4.29   -4.18
   9    -4.27   -4.76   -4.96   -5.11   -5.19   -5.20   -5.15   -5.02   -4.84   -4.35
  10    -4.46   -4.51   -4.55   -4.58   -4.59   -4.60   -4.59   -4.57   -4.54   -4.51
1
              HEAD IN LAYER   3 AT END OF TIME STEP   6 IN STRESS PERIOD   21
  ---------------------------------------------------------------------------

           1       2       3       4       5       6       7       8       9      10
 ...................................................................................
   1   -22.26  -22.43  -22.75  -23.17  -23.60  -23.96  -24.12  -24.12  -24.04  -23.98
   2   -22.31  -22.56  -23.08  -23.81  -24.68  -25.46  -25.54  -25.14  -24.73  -24.50
   3   -22.02  -22.41  -23.24  -24.64  -26.88  -30.49  -29.64  -26.94  -25.47  -24.82
   4   -20.88  -21.20  -21.85  -22.87  -24.30  -26.17  -25.91  -24.56  -23.68  -23.25
   5   -19.13  -19.31  -19.65  -20.12  -20.65  -21.11  -21.20  -21.01  -20.80  -20.67
   6   -17.30  -17.39  -17.54  -17.75  -17.96  -18.14  -18.23  -18.24  -18.21  -18.19
   7   -15.71  -15.74  -15.82  -15.91  -16.00  -16.09  -16.15  -16.18  -16.19  -16.20
   8   -14.47  -14.49  -14.53  -14.57  -14.62  -14.66  -14.70  -14.73  -14.74  -14.75
   9   -13.65  -13.66  -13.68  -13.70  -13.73  -13.76  -13.78  -13.80  -13.81  -13.81
  10   -13.24  -13.24  -13.26  -13.27  -13.29  -13.31  -13.33  -13.34  -13.35  -13.35

 HEAD WILL BE SAVED ON UNIT   21 AT END OF TIME STEP    6, STRESS PERIOD   21

 DRAWDOWN WILL BE SAVED ON UNIT   22 AT END OF TIME STEP    6, STRESS PERIOD   21
1
  VOLUMETRIC BUDGET FOR ENTIRE MODEL AT END OF TIME STEP    6, STRESS PERIOD  21
  ------------------------------------------------------------------------------

     CUMULATIVE VOLUMES      L**3       RATES FOR THIS TIME STEP      L**3/T
     ------------------                 ------------------------

           IN:                                      IN:
           ---                                      ---
             STORAGE =    33140184.0000               STORAGE =        3561.7004
       CONSTANT HEAD =      356505.1875         CONSTANT HEAD =         110.1599
               WELLS =   219209984.0000                 WELLS =       30000.0000
    INST. IB STORAGE =    46996792.0000      INST. IB STORAGE =        5168.8164
    DELAY IB STORAGE =   114552800.0000      DELAY IB STORAGE =       15581.1953

            TOTAL IN =   414256288.0000              TOTAL IN =       54421.8711

          OUT:                                     OUT:
          ----                                     ----
             STORAGE =           0.0000               STORAGE =           0.0000
       CONSTANT HEAD =   195076368.0000         CONSTANT HEAD =       24421.9473
               WELLS =   219179984.0000                 WELLS =       30000.0000
    INST. IB STORAGE =           0.0000      INST. IB STORAGE =           0.0000
    DELAY IB STORAGE =           0.0000      DELAY IB STORAGE =           0.0000

           TOTAL OUT =   414256352.0000             TOTAL OUT =       54421.9453

            IN - OUT =         -64.0000              IN - OUT =      -7.4219E-02

 PERCENT DISCREPANCY =          -0.00     PERCENT DISCREPANCY =          -0.00






         TIME SUMMARY AT END OF TIME STEP    6 IN STRESS PERIOD   21
                    SECONDS     MINUTES      HOURS       DAYS        YEARS
                    -----------------------------------------------------------
   TIME STEP LENGTH 9.18681E+06 1.53113E+05  2551.9      106.33     0.29111    
 STRESS PERIOD TIME 3.15619E+07 5.26032E+05  8767.2      365.30      1.0001    
         TOTAL TIME 6.31325E+08 1.05221E+07 1.75368E+05  7307.0      20.005    
1

                               VOLUMETRIC BUDGET FOR SYSTEMS OF DELAY INTERBEDS
                                          AT END OF TIME STEP  6 IN STRESS PERIOD 21

          |   C U M U L A T I V E   V O L U M E S   L**3           | R A T E S   F O R  T H I S  T I M E  S T E P   L**3/T  |
   SYSTEM |    CHANGE IN     BOUNDARY                    PERCENT   |    CHANGE IN     BOUNDARY                    PERCENT   |
   NUMBER |     STORAGE        FLOW           SUM      DISCREPANCY |     STORAGE        FLOW           SUM      DISCREPANCY |
  --------|--------------------------------------------------------|--------------------------------------------------------|
      1     84052.        -84052.        0.78125E-02    0.92948E-05     9.5047        -9.5047        0.19073E-05    0.20067E-04
      2    0.11447E+09   -0.11447E+09     8.0000        0.69888E-05     15572.        -15572.       -0.97656E-03   -0.62714E-05
  --------|--------------------------------------------------------|--------------------------------------------------------|
 TOTALS:    0.11455E+09   -0.11455E+09     8.0000        0.69837E-05     15581.        -15581.       -0.97656E-03   -0.62676E-05
1
                            STRESS PERIOD NO.   22, LENGTH =   365.3000    
                            -----------------------------------------------

                              NUMBER OF TIME STEPS =     6

                               MULTIPLIER FOR DELT =     1.300

                            INITIAL TIME STEP SIZE =   28.63744    

 REUSING NON-PARAMETER WELLS FROM LAST STRESS PERIOD

     14 WELLS
 
 SOLVING FOR HEAD 

    43 ITERATIONS FOR TIME STEP   1 IN STRESS PERIOD   22

 MAXIMUM HEAD CHANGE FOR EACH ITERATION:

    HEAD CHANGE   HEAD CHANGE   HEAD CHANGE   HEAD CHANGE   HEAD CHANGE
  LAYER,ROW,COL LAYER,ROW,COL LAYER,ROW,COL LAYER,ROW,COL LAYER,ROW,COL
 ----------------------------------------------------------------------
      1.583         3.757         2.493        -1.269        -2.776    
  (  3,  1,  1) (  3,  1, 10) (  3,  3,  5) (  3,  1,  1) (  3,  1,  1)
    -0.2537       -0.6257        -1.393        -1.083        0.8348    
  (  3,  1, 10) (  3,  1,  1) (  3,  1, 10) (  3,  4,  1) (  3, 10, 10)
    -0.5694E-01   -0.6974E-02   -0.4722E-02   -0.3330E-02   -0.1538E-02
  (  2,  7,  1) (  3,  1, 10) (  3,  2,  5) (  3,  1, 10) (  3,  2,  1)
    -0.1450E-02    0.8707E-03   -0.5366E-03    0.1348E-02    0.6770E-03
  (  3,  1, 10) (  3, 10,  6) (  3,  6,  1) (  3,  8,  1) (  3, 10,  1)
     0.1299E-02    0.1173E-02    0.1784E-02    0.1856E-02    0.1473E-02
  (  3,  8, 10) (  3,  1,  6) (  3, 10, 10) (  3,  1,  1) (  3,  1,  6)
     0.9841E-03    0.9366E-03    0.6787E-03    0.4845E-03    0.3614E-03
  (  3,  1,  6) (  3,  1,  6) (  3,  1,  6) (  3,  1,  6) (  3,  1,  6)
     0.2393E-03    0.2325E-03    0.1635E-03    0.1188E-03    0.8873E-04
  (  3,  1,  6) (  3,  1,  6) (  3,  1,  6) (  3,  1,  6) (  3,  1,  6)
     0.5962E-04    0.5559E-04    0.4006E-04    0.2926E-04    0.2236E-04
  (  3,  1,  6) (  3,  1,  6) (  3,  1,  6) (  3,  1,  6) (  3,  1,  6)
     0.1484E-04    0.1393E-04    0.9032E-05
  (  3,  1,  6) (  3,  1,  6) (  3,  1,  6)


 OUTPUT CONTROL FOR STRESS PERIOD   22   TIME STEP    1
    SAVE HEAD FOR ALL LAYERS

 HEAD WILL BE SAVED ON UNIT   21 AT END OF TIME STEP    1, STRESS PERIOD   22
 
 SOLVING FOR HEAD 
    41 ITERATIONS FOR TIME STEP   2 IN STRESS PERIOD   22

 MAXIMUM HEAD CHANGE FOR EACH ITERATION:

    HEAD CHANGE   HEAD CHANGE   HEAD CHANGE   HEAD CHANGE   HEAD CHANGE
  LAYER,ROW,COL LAYER,ROW,COL LAYER,ROW,COL LAYER,ROW,COL LAYER,ROW,COL
 ----------------------------------------------------------------------
      1.409         3.023         2.346        -1.039        -2.859    
  (  3,  1,  1) (  3,  1, 10) (  3,  3,  3) (  3,  3, 10) (  3,  1,  1)
    -0.1912       -0.5056        -1.245        0.2212       -0.3554E-01
  (  3,  1, 10) (  3,  1,  1) (  3,  1, 10) (  3, 10,  1) (  2,  1,  1)
    -0.5420E-01   -0.1116E-01   -0.2053E-02   -0.1413E-02   -0.1590E-02
  (  2,  7,  1) (  2,  1,  2) (  3,  3,  4) (  3,  1,  1) (  3,  3,  4)
     0.1321E-02    0.9586E-03    0.2189E-02    0.1046E-02    0.2601E-02
  (  3,  8,  8) (  3, 10, 10) (  3,  2,  8) (  3,  3, 10) (  3,  2,  5)
     0.1243E-02    0.2447E-02    0.2093E-02    0.1535E-02    0.1142E-02
  (  3,  3, 10) (  3,  1, 10) (  3,  1,  7) (  3,  1,  7) (  3,  1,  7)
     0.7154E-03    0.7199E-03    0.5216E-03    0.3602E-03    0.2638E-03
  (  3,  1,  7) (  3,  1,  7) (  3,  1,  7) (  3,  1,  7) (  3,  1,  7)
     0.1658E-03    0.1718E-03    0.1207E-03    0.8371E-04    0.6331E-04
  (  3,  1,  7) (  3,  1,  7) (  3,  1,  7) (  3,  1,  7) (  3,  1,  7)
     0.3968E-04    0.3929E-04    0.2841E-04    0.1999E-04    0.1488E-04
  (  3,  1,  7) (  3,  1,  7) (  3,  1,  7) (  3,  1,  7) (  3,  1,  7)
     0.9346E-05
  (  3,  1,  7)


 OUTPUT CONTROL FOR STRESS PERIOD   22   TIME STEP    2
    SAVE HEAD FOR ALL LAYERS

 HEAD WILL BE SAVED ON UNIT   21 AT END OF TIME STEP    2, STRESS PERIOD   22
 
 SOLVING FOR HEAD 
    40 ITERATIONS FOR TIME STEP   3 IN STRESS PERIOD   22

 MAXIMUM HEAD CHANGE FOR EACH ITERATION:

    HEAD CHANGE   HEAD CHANGE   HEAD CHANGE   HEAD CHANGE   HEAD CHANGE
  LAYER,ROW,COL LAYER,ROW,COL LAYER,ROW,COL LAYER,ROW,COL LAYER,ROW,COL
 ----------------------------------------------------------------------
     0.8789         2.014         2.246       -0.7690        -2.934    
  (  3,  1, 10) (  3,  1,  9) (  3,  1,  1) (  3,  1,  3) (  3,  1,  1)
     0.1706       -0.3767        -1.004        0.4672        0.3376E-01
  (  2,  5,  1) (  3,  1,  1) (  3,  1, 10) (  3, 10,  1) (  2, 10,  9)
    -0.4712E-01   -0.1342E-01   -0.4696E-02   -0.1364E-02   -0.1590E-02
  (  2,  7,  1) (  2,  1,  2) (  3,  3,  7) (  3,  5, 10) (  3,  3,  7)
     0.1701E-02    0.1679E-02    0.1788E-02    0.2407E-02    0.3077E-02
  (  3,  1, 10) (  3, 10, 10) (  3,  1,  4) (  3,  9,  7) (  3,  1,  3)
     0.1781E-02    0.2112E-02    0.1427E-02    0.9285E-03    0.6625E-03
  (  3,  1,  1) (  3,  2,  3) (  3,  2,  4) (  3,  1,  4) (  3,  1,  4)
     0.3822E-03    0.4474E-03    0.3118E-03    0.2025E-03    0.1460E-03
  (  3,  1,  4) (  3,  2,  3) (  3,  1,  4) (  3,  3, 10) (  3,  1,  3)
     0.8262E-04    0.9763E-04    0.6769E-04    0.4594E-04    0.3208E-04
  (  3,  3, 10) (  3,  2,  3) (  3,  3, 10) (  3,  3, 10) (  3,  3, 10)
     0.1873E-04    0.2131E-04    0.1539E-04    0.1094E-04    0.2927E-05
  (  3,  1,  3) (  3,  2,  3) (  3,  1,  4) (  3,  3, 10) (  3,  3, 10)


 OUTPUT CONTROL FOR STRESS PERIOD   22   TIME STEP    3
    SAVE HEAD FOR ALL LAYERS

 HEAD WILL BE SAVED ON UNIT   21 AT END OF TIME STEP    3, STRESS PERIOD   22
 
 SOLVING FOR HEAD 
    36 ITERATIONS FOR TIME STEP   4 IN STRESS PERIOD   22

 MAXIMUM HEAD CHANGE FOR EACH ITERATION:

    HEAD CHANGE   HEAD CHANGE   HEAD CHANGE   HEAD CHANGE   HEAD CHANGE
  LAYER,ROW,COL LAYER,ROW,COL LAYER,ROW,COL LAYER,ROW,COL LAYER,ROW,COL
 ----------------------------------------------------------------------
     0.8067         1.478         1.522       -0.7644        -2.759    
  (  3,  1,  1) (  3,  2, 10) (  3,  2,  3) (  3,  1,  5) (  3,  1,  1)
     0.1518        0.5977E-01   -0.2048E-01   -0.1462E-01   -0.1081E-01
  (  2,  5,  1) (  2, 10,  2) (  3,  2,  8) (  3,  1,  6) (  3,  3,  7)
    -0.4520E-02   -0.6562E-02   -0.2914E-02   -0.1896E-02    0.2029E-02
  (  3,  1, 10) (  3,  2,  8) (  3,  6,  4) (  3,  2,  9) (  3,  1,  1)
     0.1772E-02    0.3116E-02    0.2690E-02    0.1730E-02    0.1206E-02
  (  3, 10,  1) (  3,  1,  1) (  3,  1,  6) (  3,  1,  1) (  3,  1,  6)
     0.6860E-03    0.8109E-03    0.5945E-03    0.3534E-03    0.2466E-03
  (  3,  1,  1) (  3,  1, 10) (  3,  1,  1) (  3,  1,  6) (  3,  1,  1)
     0.1429E-03    0.1690E-03    0.1196E-03    0.7393E-04    0.5078E-04
  (  3,  1, 10) (  3,  1,  1) (  3,  1,  6) (  3,  1,  1) (  3,  1,  6)
     0.3110E-04    0.3375E-04    0.2470E-04    0.1435E-04    0.1132E-04
  (  3,  1,  1) (  3,  1, 10) (  3,  1,  1) (  3,  1,  1) (  3,  1,  1)
     0.6283E-05
  (  2,  6,  1)


 OUTPUT CONTROL FOR STRESS PERIOD   22   TIME STEP    4
    SAVE HEAD FOR ALL LAYERS

 HEAD WILL BE SAVED ON UNIT   21 AT END OF TIME STEP    4, STRESS PERIOD   22
 
 SOLVING FOR HEAD 
    31 ITERATIONS FOR TIME STEP   5 IN STRESS PERIOD   22

 MAXIMUM HEAD CHANGE FOR EACH ITERATION:

    HEAD CHANGE   HEAD CHANGE   HEAD CHANGE   HEAD CHANGE   HEAD CHANGE
  LAYER,ROW,COL LAYER,ROW,COL LAYER,ROW,COL LAYER,ROW,COL LAYER,ROW,COL
 ----------------------------------------------------------------------
     0.5364         1.110         1.108       -0.8788        -2.581    
  (  3,  1,  6) (  3,  1, 10) (  3,  1,  1) (  3,  2, 10) (  3,  1,  1)
     0.7114        0.4149        0.1421        0.7042E-01   -0.4767E-01
  (  3,  1, 10) (  3,  9,  3) (  2,  3,  6) (  2, 10,  1) (  2, 10, 10)
     0.7689E-01    0.1362E-01   -0.6179E-02   -0.3239E-02   -0.2174E-02
  (  2,  6,  1) (  2,  1,  2) (  3,  8,  4) (  3,  8,  2) (  3,  8,  2)
    -0.2116E-02   -0.1461E-02   -0.1135E-02   -0.6167E-03   -0.3913E-03
  (  2,  6,  1) (  3,  8,  3) (  3,  8,  3) (  3,  8,  3) (  3,  8,  3)
    -0.1930E-03   -0.2747E-03   -0.2154E-03   -0.1126E-03   -0.7707E-04
  (  3, 10, 10) (  3,  8,  3) (  3,  8,  4) (  3,  8,  3) (  3,  8,  3)
    -0.2924E-04   -0.5148E-04   -0.4002E-04   -0.2192E-04   -0.1407E-04
  (  3,  8,  1) (  3,  8,  3) (  3,  8,  3) (  3,  8,  5) (  3,  8,  4)
    -0.5861E-05
  (  3,  6,  1)


 OUTPUT CONTROL FOR STRESS PERIOD   22   TIME STEP    5
    SAVE HEAD FOR ALL LAYERS

 HEAD WILL BE SAVED ON UNIT   21 AT END OF TIME STEP    5, STRESS PERIOD   22
 
 SOLVING FOR HEAD 
    32 ITERATIONS FOR TIME STEP   6 IN STRESS PERIOD   22

 MAXIMUM HEAD CHANGE FOR EACH ITERATION:

    HEAD CHANGE   HEAD CHANGE   HEAD CHANGE   HEAD CHANGE   HEAD CHANGE
  LAYER,ROW,COL LAYER,ROW,COL LAYER,ROW,COL LAYER,ROW,COL LAYER,ROW,COL
 ----------------------------------------------------------------------
     0.2994        0.6375        0.4811       -0.9587        -1.232    
  (  3,  1,  4) (  3,  1, 10) (  3,  2,  1) (  3,  1, 10) (  3,  1,  1)
     0.5520        0.3423        0.9900E-01    0.3605E-01   -0.3244E-01
  (  3,  1, 10) (  3,  2,  2) (  2,  1,  9) (  2, 10,  1) (  2, 10, 10)
     0.3162E-01   -0.1234E-01   -0.1011E-01   -0.5080E-02   -0.3026E-02
  (  2,  7,  1) (  3,  2,  7) (  3,  3,  5) (  3,  3,  6) (  3,  2,  6)
    -0.2441E-02   -0.2027E-02   -0.1747E-02   -0.8483E-03   -0.5370E-03
  (  2,  7,  1) (  3,  3,  6) (  3,  3,  5) (  3,  3,  6) (  3,  3,  6)
    -0.4237E-03   -0.3528E-03   -0.2944E-03   -0.1521E-03   -0.9045E-04
  (  2,  9,  1) (  3,  2,  7) (  3,  3,  5) (  3,  3,  6) (  3,  3,  6)
    -0.4129E-04   -0.6071E-04   -0.5246E-04   -0.2654E-04   -0.1645E-04
  (  2,  8,  1) (  3,  3,  6) (  3,  3,  6) (  3,  3,  7) (  3,  3,  6)
    -0.1186E-04   -0.4053E-05
  (  2,  9,  1) (  3,  3,  3)


 OUTPUT CONTROL FOR STRESS PERIOD   22   TIME STEP    6
    PRINT BUDGET
    PRINT HEAD FOR ALL LAYERS
    SAVE HEAD FOR ALL LAYERS
    SAVE DRAWDOWN FOR ALL LAYERS
1
              HEAD IN LAYER   1 AT END OF TIME STEP   6 IN STRESS PERIOD   22
  ---------------------------------------------------------------------------

           1       2       3       4       5       6       7       8       9      10
 ...................................................................................
   1    20.40   20.05   19.38   18.96   18.75   18.75   18.95   19.37   20.04   20.39
   2    19.39   18.88   18.45   18.15   18.00   18.00   18.15   18.44   18.87   19.38
   3    17.94   17.44   17.07   16.82   16.69   16.69   16.81   17.06   17.43   17.93
   4    15.97   15.53   15.23   15.04   14.94   14.94   15.03   15.22   15.52   15.96
   5    13.18   13.09   12.98   12.90   12.86   12.85   12.90   12.98   13.08   13.17
   6    10.73   10.70   10.66   10.62   10.60   10.60   10.62   10.66   10.69   10.72
   7     8.38    8.36    8.32    8.29    8.27    8.27    8.28    8.32    8.35    8.37
   8     6.10    6.05    5.97    5.88    5.84    5.84    5.88    5.97    6.05    6.10
   9     4.02    3.88    3.61    3.31    3.19    3.19    3.31    3.61    3.87    4.02
  10     2.53    2.16    1.37    0.00    0.00    0.00    0.00    1.37    2.16    2.53
1
              HEAD IN LAYER   2 AT END OF TIME STEP   6 IN STRESS PERIOD   22
  ---------------------------------------------------------------------------

           1       2       3       4       5       6       7       8       9      10
 ...................................................................................
   1    -3.19   -3.18   -3.18   -3.19   -3.20   -3.22   -3.24   -3.26   -3.28   -3.31
   2    -3.27   -2.32   -2.62   -3.11   -3.61   -3.98   -3.95   -3.62   -3.27   -3.46
   3    -3.40   -2.86   -3.35   -4.17   -5.33   -6.90   -6.51   -5.18   -4.23   -3.63
   4    -3.55   -3.17   -3.56   -4.16   -4.92   -5.77   -5.62   -4.91   -4.29   -3.80
   5    -3.73   -3.41   -3.58   -3.85   -4.14   -4.36   -4.39   -4.26   -4.09   -3.96
   6    -3.92   -3.62   -3.67   -3.79   -3.91   -4.00   -4.03   -4.02   -4.01   -4.12
   7    -4.12   -3.94   -3.97   -4.03   -4.09   -4.13   -4.15   -4.15   -4.16   -4.28
   8    -4.33   -4.42   -4.49   -4.55   -4.60   -4.63   -4.62   -4.59   -4.54   -4.45
   9    -4.53   -5.01   -5.20   -5.35   -5.43   -5.44   -5.39   -5.26   -5.08   -4.62
  10    -4.73   -4.77   -4.81   -4.84   -4.85   -4.86   -4.85   -4.83   -4.81   -4.77
1
              HEAD IN LAYER   3 AT END OF TIME STEP   6 IN STRESS PERIOD   22
  ---------------------------------------------------------------------------

           1       2       3       4       5       6       7       8       9      10
 ...................................................................................
   1   -22.84  -23.01  -23.33  -23.74  -24.18  -24.54  -24.70  -24.70  -24.62  -24.56
   2   -22.88  -23.14  -23.65  -24.38  -25.25  -26.03  -26.11  -25.71  -25.30  -25.07
   3   -22.58  -22.97  -23.80  -25.21  -27.44  -31.06  -30.20  -27.50  -26.03  -25.38
   4   -21.42  -21.74  -22.39  -23.41  -24.84  -26.72  -26.45  -25.11  -24.23  -23.80
   5   -19.66  -19.83  -20.17  -20.64  -21.18  -21.63  -21.72  -21.54  -21.32  -21.19
   6   -17.81  -17.89  -18.04  -18.25  -18.46  -18.64  -18.73  -18.74  -18.71  -18.69
   7   -16.19  -16.23  -16.30  -16.39  -16.49  -16.57  -16.63  -16.66  -16.68  -16.68
   8   -14.94  -14.96  -14.99  -15.04  -15.08  -15.13  -15.16  -15.19  -15.21  -15.21
   9   -14.10  -14.11  -14.13  -14.15  -14.18  -14.21  -14.23  -14.25  -14.26  -14.26
  10   -13.68  -13.69  -13.70  -13.72  -13.74  -13.75  -13.77  -13.78  -13.79  -13.80

 HEAD WILL BE SAVED ON UNIT   21 AT END OF TIME STEP    6, STRESS PERIOD   22

 DRAWDOWN WILL BE SAVED ON UNIT   22 AT END OF TIME STEP    6, STRESS PERIOD   22
1
  VOLUMETRIC BUDGET FOR ENTIRE MODEL AT END OF TIME STEP    6, STRESS PERIOD  22
  ------------------------------------------------------------------------------

     CUMULATIVE VOLUMES      L**3       RATES FOR THIS TIME STEP      L**3/T
     ------------------                 ------------------------

           IN:                                      IN:
           ---                                      ---
             STORAGE =    34426900.0000               STORAGE =        3496.0889
       CONSTANT HEAD =      398117.8750         CONSTANT HEAD =         116.4236
               WELLS =   230168976.0000                 WELLS =       30000.0000
    INST. IB STORAGE =    48877912.0000      INST. IB STORAGE =        5135.1533
    DELAY IB STORAGE =   120222088.0000      DELAY IB STORAGE =       15480.0654

            TOTAL IN =   434094016.0000              TOTAL IN =       54227.7305

          OUT:                                     OUT:
          ----                                     ----
             STORAGE =           0.0000               STORAGE =           0.0000
       CONSTANT HEAD =   203955120.0000         CONSTANT HEAD =       24227.7930
               WELLS =   230138976.0000                 WELLS =       30000.0000
    INST. IB STORAGE =           0.0000      INST. IB STORAGE =           0.0000
    DELAY IB STORAGE =           0.0000      DELAY IB STORAGE =           0.0000

           TOTAL OUT =   434094080.0000             TOTAL OUT =       54227.7930

            IN - OUT =         -64.0000              IN - OUT =      -6.2500E-02

 PERCENT DISCREPANCY =          -0.00     PERCENT DISCREPANCY =          -0.00






         TIME SUMMARY AT END OF TIME STEP    6 IN STRESS PERIOD   22
                    SECONDS     MINUTES      HOURS       DAYS        YEARS
                    -----------------------------------------------------------
   TIME STEP LENGTH 9.18681E+06 1.53113E+05  2551.9      106.33     0.29111    
 STRESS PERIOD TIME 3.15619E+07 5.26032E+05  8767.2      365.30      1.0001    
         TOTAL TIME 6.62887E+08 1.10481E+07 1.84135E+05  7672.3      21.006    
1

                               VOLUMETRIC BUDGET FOR SYSTEMS OF DELAY INTERBEDS
                                          AT END OF TIME STEP  6 IN STRESS PERIOD 22

          |   C U M U L A T I V E   V O L U M E S   L**3           | R A T E S   F O R  T H I S  T I M E  S T E P   L**3/T  |
   SYSTEM |    CHANGE IN     BOUNDARY                    PERCENT   |    CHANGE IN     BOUNDARY                    PERCENT   |
   NUMBER |     STORAGE        FLOW           SUM      DISCREPANCY |     STORAGE        FLOW           SUM      DISCREPANCY |
  --------|--------------------------------------------------------|--------------------------------------------------------|
      1     87449.        -87449.        0.78125E-02    0.89338E-05     9.3434        -9.3434         0.0000         0.0000    
      2    0.12013E+09   -0.12013E+09     8.0000        0.66592E-05     15471.        -15471.       -0.19531E-02   -0.12625E-04
  --------|--------------------------------------------------------|--------------------------------------------------------|
 TOTALS:    0.12022E+09   -0.12022E+09     8.0000        0.66544E-05     15480.        -15480.       -0.19531E-02   -0.12617E-04
1
                            STRESS PERIOD NO.   23, LENGTH =   365.3000    
                            -----------------------------------------------

                              NUMBER OF TIME STEPS =     6

                               MULTIPLIER FOR DELT =     1.300

                            INITIAL TIME STEP SIZE =   28.63744    

 REUSING NON-PARAMETER WELLS FROM LAST STRESS PERIOD

     14 WELLS
 
 SOLVING FOR HEAD 

    43 ITERATIONS FOR TIME STEP   1 IN STRESS PERIOD   23

 MAXIMUM HEAD CHANGE FOR EACH ITERATION:

    HEAD CHANGE   HEAD CHANGE   HEAD CHANGE   HEAD CHANGE   HEAD CHANGE
  LAYER,ROW,COL LAYER,ROW,COL LAYER,ROW,COL LAYER,ROW,COL LAYER,ROW,COL
 ----------------------------------------------------------------------
      1.068         3.489         2.518        -1.203        -2.707    
  (  3,  3,  1) (  3,  1, 10) (  3,  3,  3) (  3,  2, 10) (  3,  1,  1)
    -0.2414       -0.6188        -1.380        -1.092        0.8369    
  (  3,  1, 10) (  3,  1,  1) (  3,  1, 10) (  3,  4,  1) (  3, 10, 10)
     0.6908E-01   -0.6762E-02   -0.4586E-02   -0.3402E-02   -0.1403E-02
  (  2,  3,  6) (  3,  1, 10) (  3,  2,  6) (  3,  4,  5) (  3,  3,  1)
    -0.1506E-02    0.8731E-03   -0.7935E-03    0.1452E-02    0.4255E-03
  (  3,  4,  5) (  3, 10,  1) (  3,  5,  4) (  3,  8,  1) (  3,  6,  6)
     0.1444E-02    0.1113E-02    0.1655E-02    0.1749E-02    0.1316E-02
  (  3, 10,  1) (  3,  3,  2) (  3, 10,  8) (  3,  1,  1) (  3,  1,  1)
     0.8545E-03    0.8697E-03    0.5956E-03    0.4274E-03    0.3172E-03
  (  3,  1,  1) (  3,  1,  1) (  3,  3,  1) (  3,  1,  1) (  3,  1,  1)
     0.2169E-03    0.2094E-03    0.1457E-03    0.1016E-03    0.7643E-04
  (  3,  1,  1) (  3,  2,  6) (  3,  1,  1) (  3,  1,  1) (  3,  1,  1)
     0.5071E-04    0.5051E-04    0.3458E-04    0.2480E-04    0.1853E-04
  (  3,  1,  1) (  3,  1,  1) (  3,  2,  6) (  3,  1,  1) (  3,  1,  1)
     0.1220E-04    0.1222E-04    0.9019E-05
  (  3,  1,  5) (  3,  2,  6) (  3,  1,  1)


 OUTPUT CONTROL FOR STRESS PERIOD   23   TIME STEP    1
    SAVE HEAD FOR ALL LAYERS

 HEAD WILL BE SAVED ON UNIT   21 AT END OF TIME STEP    1, STRESS PERIOD   23
 
 SOLVING FOR HEAD 
    41 ITERATIONS FOR TIME STEP   2 IN STRESS PERIOD   23

 MAXIMUM HEAD CHANGE FOR EACH ITERATION:

    HEAD CHANGE   HEAD CHANGE   HEAD CHANGE   HEAD CHANGE   HEAD CHANGE
  LAYER,ROW,COL LAYER,ROW,COL LAYER,ROW,COL LAYER,ROW,COL LAYER,ROW,COL
 ----------------------------------------------------------------------
      1.008         3.011         2.404       -0.9701        -2.932    
  (  3,  1,  1) (  3,  1, 10) (  3,  2,  3) (  3,  2, 10) (  3,  1,  1)
    -0.1838       -0.4822        -1.220        0.2114       -0.3820E-01
  (  3,  1, 10) (  3,  1,  1) (  3,  1, 10) (  3, 10,  1) (  2,  1,  1)
    -0.5164E-01   -0.1222E-01   -0.2719E-02   -0.1436E-02   -0.1668E-02
  (  2,  7,  1) (  2,  1,  2) (  3,  4,  5) (  3,  1,  1) (  3,  3,  6)
     0.1204E-02    0.4056E-03    0.2298E-02    0.8210E-03    0.2664E-02
  (  3,  9,  8) (  3,  7,  2) (  3,  1, 10) (  3,  4,  4) (  3,  1, 10)
     0.1015E-02    0.2440E-02    0.2073E-02    0.1505E-02    0.1084E-02
  (  3,  2,  4) (  3,  1, 10) (  3,  2,  1) (  3,  2,  4) (  3,  2,  4)
     0.6459E-03    0.7430E-03    0.5204E-03    0.3434E-03    0.2573E-03
  (  3,  1,  5) (  3,  2,  4) (  3,  2,  4) (  3,  2,  4) (  3,  2,  4)
     0.1515E-03    0.1759E-03    0.1189E-03    0.8190E-04    0.5822E-04
  (  3,  1,  1) (  3,  2,  4) (  3,  2,  4) (  3,  2,  4) (  3,  2,  4)
     0.3576E-04    0.4030E-04    0.2850E-04    0.1872E-04    0.1465E-04
  (  3,  2,  4) (  3,  2,  4) (  3,  2,  4) (  3,  2,  4) (  3,  2,  4)
     0.7669E-05
  (  3,  2,  4)


 OUTPUT CONTROL FOR STRESS PERIOD   23   TIME STEP    2
    SAVE HEAD FOR ALL LAYERS

 HEAD WILL BE SAVED ON UNIT   21 AT END OF TIME STEP    2, STRESS PERIOD   23
 
 SOLVING FOR HEAD 
    39 ITERATIONS FOR TIME STEP   3 IN STRESS PERIOD   23

 MAXIMUM HEAD CHANGE FOR EACH ITERATION:

    HEAD CHANGE   HEAD CHANGE   HEAD CHANGE   HEAD CHANGE   HEAD CHANGE
  LAYER,ROW,COL LAYER,ROW,COL LAYER,ROW,COL LAYER,ROW,COL LAYER,ROW,COL
 ----------------------------------------------------------------------
      1.206         2.008         2.224       -0.8086        -2.943    
  (  3,  1, 10) (  3,  2, 10) (  3,  1,  1) (  3,  2, 10) (  3,  1,  1)
     0.1708       -0.3479       -0.9401        0.4811        0.3337E-01
  (  2,  5,  1) (  3,  1,  1) (  3,  1, 10) (  3, 10,  1) (  2, 10,  9)
    -0.4136E-01   -0.1298E-01   -0.4600E-02   -0.1998E-02   -0.1383E-02
  (  2,  7,  1) (  2,  1,  2) (  3,  3,  6) (  3,  4,  3) (  3,  3,  1)
     0.1765E-02    0.1711E-02    0.1769E-02    0.2528E-02    0.2865E-02
  (  3,  1,  1) (  3, 10, 10) (  3,  1,  6) (  3,  9,  1) (  3,  1,  6)
     0.1645E-02    0.1997E-02    0.1355E-02    0.8766E-03    0.6224E-03
  (  3,  1,  1) (  3,  2,  6) (  3,  2,  6) (  3,  1,  6) (  3,  1,  6)
     0.3781E-03    0.4231E-03    0.2948E-03    0.1876E-03    0.1357E-03
  (  3,  1, 10) (  3,  2,  6) (  3,  2,  6) (  3,  1,  6) (  3,  1,  6)
     0.7531E-04    0.9264E-04    0.6353E-04    0.4177E-04    0.2937E-04
  (  3,  1,  6) (  3,  2,  6) (  3,  2,  6) (  3,  1,  5) (  3,  1,  6)
     0.1734E-04    0.2043E-04    0.1360E-04    0.9344E-05
  (  3,  1,  6) (  3,  2,  6) (  3,  3, 10) (  3,  4,  4)


 OUTPUT CONTROL FOR STRESS PERIOD   23   TIME STEP    3
    SAVE HEAD FOR ALL LAYERS

 HEAD WILL BE SAVED ON UNIT   21 AT END OF TIME STEP    3, STRESS PERIOD   23
 
 SOLVING FOR HEAD 
    36 ITERATIONS FOR TIME STEP   4 IN STRESS PERIOD   23

 MAXIMUM HEAD CHANGE FOR EACH ITERATION:

    HEAD CHANGE   HEAD CHANGE   HEAD CHANGE   HEAD CHANGE   HEAD CHANGE
  LAYER,ROW,COL LAYER,ROW,COL LAYER,ROW,COL LAYER,ROW,COL LAYER,ROW,COL
 ----------------------------------------------------------------------
     0.7888         1.413         1.645       -0.7156        -2.852    
  (  3,  1,  7) (  3,  1,  9) (  3,  2,  1) (  3, 10, 10) (  3,  1,  1)
     0.1495        0.6227E-01   -0.1841E-01   -0.1432E-01   -0.1051E-01
  (  2,  6,  1) (  2, 10,  2) (  3,  2,  1) (  3,  1,  5) (  3,  3,  7)
    -0.4423E-02   -0.6360E-02   -0.2873E-02   -0.1814E-02    0.2093E-02
  (  3,  1, 10) (  3,  2,  8) (  3,  6,  3) (  3,  2,  9) (  3,  1,  9)
     0.1375E-02    0.2954E-02    0.2651E-02    0.1660E-02    0.1199E-02
  (  3, 10,  1) (  3,  1,  1) (  3,  1,  6) (  3,  1,  7) (  3,  1,  5)
     0.6119E-03    0.7922E-03    0.5503E-03    0.3529E-03    0.2387E-03
  (  3,  1,  7) (  3,  1, 10) (  3,  1,  1) (  3,  1,  5) (  3,  1,  7)
     0.1397E-03    0.1565E-03    0.1189E-03    0.6980E-04    0.5144E-04
  (  3,  1, 10) (  3,  1,  1) (  3,  1,  6) (  3,  1,  7) (  3,  1,  5)
     0.2825E-04    0.3318E-04    0.2440E-04    0.1505E-04    0.1001E-04
  (  2,  7,  1) (  3,  1, 10) (  3,  1,  6) (  3,  1,  5) (  3,  1, 10)
     0.4920E-05
  (  2,  7,  1)


 OUTPUT CONTROL FOR STRESS PERIOD   23   TIME STEP    4
    SAVE HEAD FOR ALL LAYERS

 HEAD WILL BE SAVED ON UNIT   21 AT END OF TIME STEP    4, STRESS PERIOD   23
 
 SOLVING FOR HEAD 
    31 ITERATIONS FOR TIME STEP   5 IN STRESS PERIOD   23

 MAXIMUM HEAD CHANGE FOR EACH ITERATION:

    HEAD CHANGE   HEAD CHANGE   HEAD CHANGE   HEAD CHANGE   HEAD CHANGE
  LAYER,ROW,COL LAYER,ROW,COL LAYER,ROW,COL LAYER,ROW,COL LAYER,ROW,COL
 ----------------------------------------------------------------------
     0.5205         1.105         1.038       -0.8615        -2.506    
  (  3,  1,  7) (  3,  1, 10) (  3,  1,  1) (  3,  2, 10) (  3,  1,  1)
     0.6939        0.3955        0.1318        0.6770E-01   -0.4597E-01
  (  3,  1, 10) (  3,  9,  6) (  2,  1,  8) (  2, 10,  1) (  2, 10, 10)
     0.7398E-01    0.1289E-01   -0.5983E-02   -0.3132E-02   -0.2114E-02
  (  2,  6,  1) (  2,  1,  2) (  3,  7,  2) (  3,  7,  1) (  3,  7,  1)
    -0.1979E-02   -0.1411E-02   -0.1080E-02   -0.6076E-03   -0.3751E-03
  (  2,  6,  1) (  3,  7,  2) (  3,  7,  2) (  3,  7,  1) (  3,  7,  2)
    -0.1746E-03   -0.2626E-03   -0.2107E-03   -0.1088E-03   -0.7761E-04
  (  3, 10, 10) (  3,  7,  2) (  3,  7,  2) (  3,  7,  1) (  3,  7,  1)
    -0.2903E-04   -0.5053E-04   -0.3797E-04   -0.2310E-04   -0.1352E-04
  (  3,  7,  1) (  3,  7,  2) (  3,  7,  1) (  3,  7,  2) (  3,  6,  2)
    -0.5999E-05
  (  3,  7,  1)


 OUTPUT CONTROL FOR STRESS PERIOD   23   TIME STEP    5
    SAVE HEAD FOR ALL LAYERS

 HEAD WILL BE SAVED ON UNIT   21 AT END OF TIME STEP    5, STRESS PERIOD   23
 
 SOLVING FOR HEAD 
    32 ITERATIONS FOR TIME STEP   6 IN STRESS PERIOD   23

 MAXIMUM HEAD CHANGE FOR EACH ITERATION:

    HEAD CHANGE   HEAD CHANGE   HEAD CHANGE   HEAD CHANGE   HEAD CHANGE
  LAYER,ROW,COL LAYER,ROW,COL LAYER,ROW,COL LAYER,ROW,COL LAYER,ROW,COL
 ----------------------------------------------------------------------
     0.4120        0.5587        0.4242       -0.9701        -1.169    
  (  3,  1,  1) (  3,  2,  9) (  3,  3,  1) (  3,  1, 10) (  3,  1,  1)
     0.5434        0.3324        0.1345        0.3493E-01   -0.3162E-01
  (  3,  1, 10) (  3,  2,  2) (  2,  3,  7) (  2, 10,  1) (  2, 10, 10)
     0.3096E-01   -0.1210E-01   -0.9903E-02   -0.4986E-02   -0.2969E-02
  (  2,  7,  1) (  3,  2,  7) (  3,  3,  5) (  3,  2,  7) (  3,  3,  6)
    -0.2367E-02   -0.1988E-02   -0.1712E-02   -0.8328E-03   -0.5266E-03
  (  2,  7,  1) (  3,  3,  6) (  3,  3,  5) (  3,  3,  6) (  3,  3,  6)
    -0.4065E-03   -0.3472E-03   -0.2877E-03   -0.1502E-03   -0.8816E-04
  (  2,  9,  1) (  3,  2,  7) (  3,  3,  6) (  3,  3,  6) (  3,  3,  6)
    -0.3854E-04   -0.6008E-04   -0.5136E-04   -0.2483E-04   -0.1663E-04
  (  2,  8,  1) (  3,  3,  6) (  3,  3,  6) (  3,  3,  6) (  3,  3,  6)
    -0.1126E-04   -0.4033E-05
  (  2,  9,  1) (  3,  2,  7)


 OUTPUT CONTROL FOR STRESS PERIOD   23   TIME STEP    6
    PRINT BUDGET
    PRINT HEAD FOR ALL LAYERS
    SAVE HEAD FOR ALL LAYERS
    SAVE DRAWDOWN FOR ALL LAYERS
1
              HEAD IN LAYER   1 AT END OF TIME STEP   6 IN STRESS PERIOD   23
  ---------------------------------------------------------------------------

           1       2       3       4       5       6       7       8       9      10
 ...................................................................................
   1    20.31   19.96   19.29   18.87   18.66   18.66   18.86   19.28   19.95   20.30
   2    19.30   18.79   18.36   18.06   17.91   17.91   18.06   18.36   18.78   19.29
   3    17.85   17.35   16.98   16.73   16.61   16.60   16.73   16.97   17.34   17.84
   4    15.89   15.45   15.15   14.96   14.86   14.86   14.95   15.14   15.44   15.88
   5    13.10   13.01   12.91   12.83   12.78   12.78   12.82   12.90   13.00   13.09
   6    10.66   10.63   10.59   10.56   10.54   10.54   10.56   10.59   10.63   10.65
   7     8.32    8.30    8.27    8.23    8.21    8.21    8.23    8.26    8.30    8.32
   8     6.06    6.01    5.93    5.84    5.79    5.79    5.84    5.93    6.01    6.06
   9     3.99    3.85    3.58    3.29    3.17    3.17    3.29    3.58    3.84    3.99
  10     2.51    2.15    1.36    0.00    0.00    0.00    0.00    1.36    2.14    2.51
1
              HEAD IN LAYER   2 AT END OF TIME STEP   6 IN STRESS PERIOD   23
  ---------------------------------------------------------------------------

           1       2       3       4       5       6       7       8       9      10
 ...................................................................................
   1    -3.49   -3.48   -3.48   -3.49   -3.51   -3.52   -3.54   -3.56   -3.59   -3.62
   2    -3.57   -2.65   -2.94   -3.43   -3.93   -4.30   -4.28   -3.94   -3.59   -3.76
   3    -3.69   -3.18   -3.67   -4.49   -5.64   -7.02   -6.82   -5.50   -4.55   -3.93
   4    -3.84   -3.47   -3.87   -4.47   -5.23   -6.08   -5.93   -5.22   -4.60   -4.09
   5    -4.02   -3.71   -3.87   -4.15   -4.44   -4.66   -4.69   -4.56   -4.38   -4.25
   6    -4.20   -3.91   -3.96   -4.07   -4.19   -4.28   -4.32   -4.30   -4.29   -4.40
   7    -4.40   -4.21   -4.24   -4.30   -4.36   -4.40   -4.42   -4.42   -4.43   -4.56
   8    -4.60   -4.68   -4.74   -4.81   -4.86   -4.88   -4.87   -4.84   -4.80   -4.72
   9    -4.80   -5.25   -5.44   -5.59   -5.67   -5.68   -5.63   -5.50   -5.33   -4.89
  10    -4.99   -5.03   -5.07   -5.10   -5.11   -5.12   -5.11   -5.09   -5.07   -5.04
1
              HEAD IN LAYER   3 AT END OF TIME STEP   6 IN STRESS PERIOD   23
  ---------------------------------------------------------------------------

           1       2       3       4       5       6       7       8       9      10
 ...................................................................................
   1   -23.41  -23.58  -23.90  -24.31  -24.75  -25.11  -25.27  -25.27  -25.19  -25.14
   2   -23.44  -23.70  -24.21  -24.95  -25.82  -26.60  -26.68  -26.28  -25.87  -25.64
   3   -23.13  -23.52  -24.36  -25.76  -27.99  -31.61  -30.76  -28.06  -26.59  -25.93
   4   -21.96  -22.28  -22.93  -23.95  -25.38  -27.26  -26.99  -25.65  -24.77  -24.34
   5   -20.18  -20.35  -20.69  -21.16  -21.70  -22.15  -22.24  -22.06  -21.84  -21.71
   6   -18.30  -18.39  -18.54  -18.75  -18.96  -19.14  -19.23  -19.24  -19.22  -19.19
   7   -16.67  -16.71  -16.78  -16.87  -16.97  -17.05  -17.11  -17.14  -17.16  -17.16
   8   -15.40  -15.42  -15.46  -15.50  -15.55  -15.59  -15.63  -15.66  -15.67  -15.68
   9   -14.55  -14.56  -14.58  -14.61  -14.63  -14.66  -14.68  -14.70  -14.71  -14.72
  10   -14.13  -14.13  -14.15  -14.16  -14.18  -14.20  -14.22  -14.23  -14.24  -14.24

 HEAD WILL BE SAVED ON UNIT   21 AT END OF TIME STEP    6, STRESS PERIOD   23

 DRAWDOWN WILL BE SAVED ON UNIT   22 AT END OF TIME STEP    6, STRESS PERIOD   23
1
  VOLUMETRIC BUDGET FOR ENTIRE MODEL AT END OF TIME STEP    6, STRESS PERIOD  23
  ------------------------------------------------------------------------------

     CUMULATIVE VOLUMES      L**3       RATES FOR THIS TIME STEP      L**3/T
     ------------------                 ------------------------

           IN:                                      IN:
           ---                                      ---
             STORAGE =    35689924.0000               STORAGE =        3431.4751
       CONSTANT HEAD =      442014.9375         CONSTANT HEAD =         122.6700
               WELLS =   241127968.0000                 WELLS =       30000.0000
    INST. IB STORAGE =    50746944.0000      INST. IB STORAGE =        5103.4878
    DELAY IB STORAGE =   125854656.0000      DELAY IB STORAGE =       15379.1426

            TOTAL IN =   453861504.0000              TOTAL IN =       54036.7812

          OUT:                                     OUT:
          ----                                     ----
             STORAGE =           0.0000               STORAGE =           0.0000
       CONSTANT HEAD =   212763648.0000         CONSTANT HEAD =       24036.8730
               WELLS =   241097968.0000                 WELLS =       30000.0000
    INST. IB STORAGE =           0.0000      INST. IB STORAGE =           0.0000
    DELAY IB STORAGE =           0.0000      DELAY IB STORAGE =           0.0000

           TOTAL OUT =   453861632.0000             TOTAL OUT =       54036.8750

            IN - OUT =        -128.0000              IN - OUT =      -9.3750E-02

 PERCENT DISCREPANCY =          -0.00     PERCENT DISCREPANCY =          -0.00






         TIME SUMMARY AT END OF TIME STEP    6 IN STRESS PERIOD   23
                    SECONDS     MINUTES      HOURS       DAYS        YEARS
                    -----------------------------------------------------------
   TIME STEP LENGTH 9.18681E+06 1.53113E+05  2551.9      106.33     0.29111    
 STRESS PERIOD TIME 3.15619E+07 5.26032E+05  8767.2      365.30      1.0001    
         TOTAL TIME 6.94449E+08 1.15741E+07 1.92902E+05  8037.6      22.006    
1

                               VOLUMETRIC BUDGET FOR SYSTEMS OF DELAY INTERBEDS
                                          AT END OF TIME STEP  6 IN STRESS PERIOD 23

          |   C U M U L A T I V E   V O L U M E S   L**3           | R A T E S   F O R  T H I S  T I M E  S T E P   L**3/T  |
   SYSTEM |    CHANGE IN     BOUNDARY                    PERCENT   |    CHANGE IN     BOUNDARY                    PERCENT   |
   NUMBER |     STORAGE        FLOW           SUM      DISCREPANCY |     STORAGE        FLOW           SUM      DISCREPANCY |
  --------|--------------------------------------------------------|--------------------------------------------------------|
      1     90779.        -90779.        0.15625E-01    0.17212E-04     9.1536        -9.1536         0.0000         0.0000    
      2    0.12576E+09   -0.12576E+09     8.0000        0.63611E-05     15370.        -15370.        0.68359E-02    0.44476E-04
  --------|--------------------------------------------------------|--------------------------------------------------------|
 TOTALS:    0.12585E+09   -0.12585E+09     8.0000        0.63565E-05     15379.        -15379.        0.68359E-02    0.44449E-04
1
                            STRESS PERIOD NO.   24, LENGTH =   365.3000    
                            -----------------------------------------------

                              NUMBER OF TIME STEPS =     6

                               MULTIPLIER FOR DELT =     1.300

                            INITIAL TIME STEP SIZE =   28.63744    

 REUSING NON-PARAMETER WELLS FROM LAST STRESS PERIOD

     14 WELLS
 
 SOLVING FOR HEAD 

    43 ITERATIONS FOR TIME STEP   1 IN STRESS PERIOD   24

 MAXIMUM HEAD CHANGE FOR EACH ITERATION:

    HEAD CHANGE   HEAD CHANGE   HEAD CHANGE   HEAD CHANGE   HEAD CHANGE
  LAYER,ROW,COL LAYER,ROW,COL LAYER,ROW,COL LAYER,ROW,COL LAYER,ROW,COL
 ----------------------------------------------------------------------
      1.502         3.022         2.487        -1.167        -2.663    
  (  3,  2, 10) (  3,  1,  9) (  3,  2,  4) (  3,  1,  5) (  3,  1,  1)
    -0.2202       -0.6051        -1.367        -1.091        0.8595    
  (  3,  1, 10) (  3,  1,  1) (  3,  1, 10) (  3,  4,  1) (  3, 10,  1)
     0.1499       -0.8792E-02   -0.4475E-02   -0.3216E-02   -0.1410E-02
  (  2,  3,  7) (  2,  1,  2) (  3,  2,  8) (  3,  3,  5) (  3,  2,  3)
    -0.1432E-02    0.7959E-03   -0.6817E-03    0.1408E-02    0.7046E-03
  (  3,  3,  6) (  3, 10, 10) (  3,  3,  6) (  3,  7,  9) (  3,  9,  2)
     0.1298E-02    0.1314E-02    0.1693E-02    0.1708E-02    0.1417E-02
  (  3,  1,  1) (  3,  9,  1) (  3, 10,  9) (  3,  1, 10) (  3,  1,  5)
     0.9590E-03    0.9191E-03    0.6592E-03    0.4662E-03    0.3529E-03
  (  3,  1,  5) (  3,  3,  8) (  3,  1,  5) (  3,  1,  5) (  3,  1,  5)
     0.2321E-03    0.2252E-03    0.1588E-03    0.1157E-03    0.8620E-04
  (  3,  1,  5) (  3,  1,  5) (  3,  1,  5) (  3,  1,  5) (  3,  1,  5)
     0.5829E-04    0.5519E-04    0.4004E-04    0.2794E-04    0.2051E-04
  (  3,  1,  5) (  3,  3,  8) (  3,  1,  5) (  3,  1,  5) (  3,  1,  5)
     0.1435E-04    0.1319E-04    0.8684E-05
  (  3,  1,  5) (  3,  1,  5) (  3,  1,  5)


 OUTPUT CONTROL FOR STRESS PERIOD   24   TIME STEP    1
    SAVE HEAD FOR ALL LAYERS

 HEAD WILL BE SAVED ON UNIT   21 AT END OF TIME STEP    1, STRESS PERIOD   24
 
 SOLVING FOR HEAD 
    41 ITERATIONS FOR TIME STEP   2 IN STRESS PERIOD   24

 MAXIMUM HEAD CHANGE FOR EACH ITERATION:

    HEAD CHANGE   HEAD CHANGE   HEAD CHANGE   HEAD CHANGE   HEAD CHANGE
  LAYER,ROW,COL LAYER,ROW,COL LAYER,ROW,COL LAYER,ROW,COL LAYER,ROW,COL
 ----------------------------------------------------------------------
      1.025         2.946         2.449        -1.045        -2.792    
  (  3,  1,  7) (  3,  1, 10) (  3,  1,  1) (  3,  2, 10) (  3,  1,  1)
    -0.1828       -0.4918        -1.212        0.2017       -0.3893E-01
  (  3,  1, 10) (  3,  1,  1) (  3,  1, 10) (  3, 10,  1) (  2,  1,  1)
    -0.5245E-01   -0.1222E-01   -0.2332E-02   -0.1487E-02   -0.1579E-02
  (  2,  7,  1) (  2,  1,  2) (  3,  5,  5) (  3,  1,  1) (  3,  3,  7)
     0.1063E-02    0.6715E-03    0.2130E-02    0.1080E-02    0.2501E-02
  (  3, 10,  5) (  3,  8,  2) (  3,  1, 10) (  3,  3,  2) (  3,  1, 10)
     0.1286E-02    0.2406E-02    0.2120E-02    0.1563E-02    0.1136E-02
  (  3,  1,  5) (  3,  1, 10) (  3,  2,  3) (  3,  1,  5) (  3,  1,  5)
     0.7162E-03    0.7667E-03    0.5314E-03    0.3578E-03    0.2683E-03
  (  3,  1,  5) (  3,  2,  3) (  3,  1,  5) (  3,  1,  5) (  3,  1,  5)
     0.1629E-03    0.1798E-03    0.1212E-03    0.8511E-04    0.6183E-04
  (  3,  1,  5) (  3,  2,  3) (  3,  2,  3) (  3,  1,  5) (  3,  1,  5)
     0.3960E-04    0.4089E-04    0.2903E-04    0.1933E-04    0.1464E-04
  (  3,  1,  5) (  3,  2,  6) (  3,  1,  5) (  3,  1,  5) (  3,  1,  5)
     0.8657E-05
  (  3,  1,  5)


 OUTPUT CONTROL FOR STRESS PERIOD   24   TIME STEP    2
    SAVE HEAD FOR ALL LAYERS

 HEAD WILL BE SAVED ON UNIT   21 AT END OF TIME STEP    2, STRESS PERIOD   24
 
 SOLVING FOR HEAD 
    39 ITERATIONS FOR TIME STEP   3 IN STRESS PERIOD   24

 MAXIMUM HEAD CHANGE FOR EACH ITERATION:

    HEAD CHANGE   HEAD CHANGE   HEAD CHANGE   HEAD CHANGE   HEAD CHANGE
  LAYER,ROW,COL LAYER,ROW,COL LAYER,ROW,COL LAYER,ROW,COL LAYER,ROW,COL
 ----------------------------------------------------------------------
     0.8641         1.957         2.114       -0.7559        -2.901    
  (  3,  1,  3) (  3,  1,  6) (  3,  2,  1) (  3, 10, 10) (  3,  1,  1)
     0.1733       -0.3504       -0.9405        0.4894        0.3289E-01
  (  2,  6,  1) (  3,  1,  1) (  3,  1, 10) (  3, 10,  1) (  2, 10,  9)
    -0.4399E-01   -0.1123E-01   -0.4597E-02   -0.2140E-02   -0.1473E-02
  (  2,  7,  1) (  2,  1,  2) (  3,  3,  5) (  3,  3,  6) (  3,  2,  3)
     0.1441E-02    0.1755E-02    0.1708E-02    0.2542E-02    0.2805E-02
  (  3,  1,  1) (  3, 10, 10) (  3,  1, 10) (  3, 10,  3) (  3,  1, 10)
     0.1611E-02    0.2033E-02    0.1375E-02    0.8865E-03    0.6186E-03
  (  3,  1, 10) (  3,  2,  5) (  3,  2,  5) (  3,  2,  5) (  3,  2,  5)
     0.3807E-03    0.4302E-03    0.3065E-03    0.1885E-03    0.1389E-03
  (  3,  1, 10) (  3,  2,  5) (  3,  2,  5) (  3,  2,  5) (  3,  2,  5)
     0.7578E-04    0.9701E-04    0.6544E-04    0.4230E-04    0.2972E-04
  (  3,  1, 10) (  3,  2,  5) (  3,  2,  5) (  3,  2,  5) (  3,  2,  5)
     0.1756E-04    0.2053E-04    0.1491E-04    0.9488E-05
  (  3,  1, 10) (  3,  2,  5) (  3,  2,  5) (  3,  4, 10)


 OUTPUT CONTROL FOR STRESS PERIOD   24   TIME STEP    3
    SAVE HEAD FOR ALL LAYERS

 HEAD WILL BE SAVED ON UNIT   21 AT END OF TIME STEP    3, STRESS PERIOD   24
 
 SOLVING FOR HEAD 
    35 ITERATIONS FOR TIME STEP   4 IN STRESS PERIOD   24

 MAXIMUM HEAD CHANGE FOR EACH ITERATION:

    HEAD CHANGE   HEAD CHANGE   HEAD CHANGE   HEAD CHANGE   HEAD CHANGE
  LAYER,ROW,COL LAYER,ROW,COL LAYER,ROW,COL LAYER,ROW,COL LAYER,ROW,COL
 ----------------------------------------------------------------------
     0.6644         1.693         1.672       -0.6936        -2.859    
  (  3,  3, 10) (  3,  1, 10) (  3,  2,  1) (  3,  1,  3) (  3,  1,  1)
     0.2528        0.5355E-01   -0.1756E-01   -0.1415E-01   -0.1052E-01
  (  2,  3,  6) (  2, 10,  2) (  3,  1, 10) (  3,  1,  1) (  3,  1,  1)
    -0.4323E-02   -0.6166E-02   -0.2904E-02   -0.1782E-02    0.2077E-02
  (  3,  1,  1) (  3,  2,  7) (  3,  6,  3) (  3,  2,  8) (  3,  1, 10)
     0.1466E-02    0.2812E-02    0.2486E-02    0.1576E-02    0.1117E-02
  (  3, 10,  1) (  3,  1,  1) (  3,  1,  4) (  3,  1,  5) (  3,  1,  4)
     0.5853E-03    0.7575E-03    0.5325E-03    0.3242E-03    0.2230E-03
  (  3,  1,  1) (  3,  2,  2) (  3,  1,  1) (  3,  1,  4) (  3,  1,  5)
     0.1260E-03    0.1507E-03    0.1087E-03    0.6477E-04    0.4546E-04
  (  3,  1, 10) (  3,  1,  1) (  3,  1,  4) (  3,  1,  5) (  3,  1,  4)
     0.2695E-04    0.3116E-04    0.2211E-04    0.1331E-04    0.9296E-05
  (  2,  7,  1) (  3,  2,  2) (  3,  1,  4) (  3,  1,  4) (  3,  1,  6)


 OUTPUT CONTROL FOR STRESS PERIOD   24   TIME STEP    4
    SAVE HEAD FOR ALL LAYERS

 HEAD WILL BE SAVED ON UNIT   21 AT END OF TIME STEP    4, STRESS PERIOD   24
 
 SOLVING FOR HEAD 
    31 ITERATIONS FOR TIME STEP   5 IN STRESS PERIOD   24

 MAXIMUM HEAD CHANGE FOR EACH ITERATION:

    HEAD CHANGE   HEAD CHANGE   HEAD CHANGE   HEAD CHANGE   HEAD CHANGE
  LAYER,ROW,COL LAYER,ROW,COL LAYER,ROW,COL LAYER,ROW,COL LAYER,ROW,COL
 ----------------------------------------------------------------------
     0.4510         1.099        0.9745       -0.8233        -2.462    
  (  3,  4, 10) (  3,  1, 10) (  3,  2,  1) (  3,  2, 10) (  3,  1,  1)
     0.6705        0.3906        0.1305        0.6731E-01   -0.4582E-01
  (  3,  1, 10) (  3,  9,  3) (  2,  1,  7) (  2, 10,  1) (  2, 10, 10)
     0.7330E-01    0.1276E-01   -0.5837E-02   -0.3080E-02   -0.2037E-02
  (  2,  6,  1) (  2,  1,  2) (  3,  7,  2) (  3,  7,  1) (  3,  7,  1)
    -0.1897E-02   -0.1374E-02   -0.1061E-02   -0.5829E-03   -0.3694E-03
  (  2,  6,  1) (  3,  7,  2) (  3,  7,  2) (  3,  7,  1) (  3,  7,  1)
    -0.1594E-03   -0.2561E-03   -0.2026E-03   -0.1060E-03   -0.7314E-04
  (  3, 10, 10) (  3,  7,  2) (  3,  7,  2) (  3,  7,  2) (  3,  7,  2)
    -0.2808E-04   -0.4883E-04   -0.3772E-04   -0.2145E-04   -0.1288E-04
  (  3,  7,  1) (  3,  7,  2) (  3,  7,  2) (  3,  7,  2) (  3,  6,  2)
    -0.5584E-05
  (  3,  6,  3)


 OUTPUT CONTROL FOR STRESS PERIOD   24   TIME STEP    5
    SAVE HEAD FOR ALL LAYERS

 HEAD WILL BE SAVED ON UNIT   21 AT END OF TIME STEP    5, STRESS PERIOD   24
 
 SOLVING FOR HEAD 
    32 ITERATIONS FOR TIME STEP   6 IN STRESS PERIOD   24

 MAXIMUM HEAD CHANGE FOR EACH ITERATION:

    HEAD CHANGE   HEAD CHANGE   HEAD CHANGE   HEAD CHANGE   HEAD CHANGE
  LAYER,ROW,COL LAYER,ROW,COL LAYER,ROW,COL LAYER,ROW,COL LAYER,ROW,COL
 ----------------------------------------------------------------------
     0.3313        0.5937        0.4335       -0.9444        -1.173    
  (  3,  1,  1) (  3,  1, 10) (  3,  3,  4) (  3,  2, 10) (  3,  1,  1)
     0.5412        0.3334        0.9670E-01    0.3527E-01   -0.3192E-01
  (  3,  1, 10) (  3,  2,  2) (  2,  1,  9) (  2, 10,  1) (  2, 10, 10)
     0.3136E-01   -0.1217E-01   -0.9946E-02   -0.5011E-02   -0.2978E-02
  (  2,  7,  1) (  3,  2,  7) (  3,  3,  5) (  3,  2,  6) (  3,  3,  6)
    -0.2405E-02   -0.1993E-02   -0.1721E-02   -0.8358E-03   -0.5289E-03
  (  2,  7,  1) (  3,  3,  6) (  3,  3,  5) (  3,  3,  6) (  3,  3,  6)
    -0.4198E-03   -0.3487E-03   -0.2900E-03   -0.1493E-03   -0.8940E-04
  (  2,  9,  1) (  3,  2,  7) (  3,  3,  5) (  3,  3,  6) (  3,  3,  6)
    -0.4049E-04   -0.5971E-04   -0.5109E-04   -0.2568E-04   -0.1574E-04
  (  2,  8,  1) (  3,  3,  7) (  3,  3,  6) (  3,  3,  6) (  3,  3,  6)
    -0.1152E-04   -0.4352E-05
  (  2,  9,  1) (  3,  3,  5)


 OUTPUT CONTROL FOR STRESS PERIOD   24   TIME STEP    6
    PRINT BUDGET
    PRINT HEAD FOR ALL LAYERS
    SAVE HEAD FOR ALL LAYERS
    SAVE DRAWDOWN FOR ALL LAYERS
1
              HEAD IN LAYER   1 AT END OF TIME STEP   6 IN STRESS PERIOD   24
  ---------------------------------------------------------------------------

           1       2       3       4       5       6       7       8       9      10
 ...................................................................................
   1    20.23   19.87   19.20   18.78   18.57   18.57   18.78   19.20   19.87   20.22
   2    19.21   18.71   18.28   17.98   17.82   17.82   17.97   18.27   18.70   19.20
   3    17.77   17.27   16.90   16.65   16.52   16.52   16.64   16.89   17.26   17.76
   4    15.81   15.37   15.07   14.88   14.78   14.78   14.87   15.06   15.36   15.80
   5    13.03   12.94   12.84   12.75   12.71   12.71   12.75   12.83   12.93   13.02
   6    10.60   10.57   10.53   10.49   10.47   10.47   10.49   10.53   10.56   10.59
   7     8.27    8.25    8.21    8.18    8.16    8.16    8.18    8.21    8.24    8.26
   8     6.02    5.97    5.89    5.80    5.75    5.75    5.80    5.88    5.97    6.02
   9     3.96    3.82    3.56    3.26    3.14    3.14    3.26    3.56    3.82    3.96
  10     2.49    2.13    1.35    0.00    0.00    0.00    0.00    1.34    2.13    2.49
1
              HEAD IN LAYER   2 AT END OF TIME STEP   6 IN STRESS PERIOD   24
  ---------------------------------------------------------------------------

           1       2       3       4       5       6       7       8       9      10
 ...................................................................................
   1    -3.79   -3.78   -3.78   -3.79   -3.81   -3.82   -3.84   -3.86   -3.89   -3.91
   2    -3.87   -2.96   -3.26   -3.75   -4.25   -4.62   -4.59   -4.26   -3.91   -4.06
   3    -3.99   -3.49   -3.99   -4.80   -5.94   -7.09   -7.01   -5.81   -4.86   -4.22
   4    -4.13   -3.78   -4.18   -4.78   -5.53   -6.38   -6.24   -5.53   -4.90   -4.38
   5    -4.30   -4.00   -4.17   -4.44   -4.73   -4.96   -4.98   -4.85   -4.68   -4.53
   6    -4.48   -4.19   -4.24   -4.35   -4.47   -4.56   -4.60   -4.59   -4.57   -4.68
   7    -4.67   -4.48   -4.50   -4.57   -4.62   -4.67   -4.69   -4.69   -4.70   -4.84
   8    -4.87   -4.93   -5.00   -5.06   -5.11   -5.13   -5.13   -5.10   -5.06   -4.99
   9    -5.07   -5.50   -5.68   -5.83   -5.91   -5.92   -5.87   -5.74   -5.57   -5.15
  10    -5.25   -5.29   -5.33   -5.36   -5.37   -5.38   -5.37   -5.35   -5.33   -5.30
1
              HEAD IN LAYER   3 AT END OF TIME STEP   6 IN STRESS PERIOD   24
  ---------------------------------------------------------------------------

           1       2       3       4       5       6       7       8       9      10
 ...................................................................................
   1   -23.97  -24.14  -24.46  -24.87  -25.31  -25.67  -25.83  -25.83  -25.76  -25.70
   2   -23.99  -24.25  -24.77  -25.50  -26.37  -27.15  -27.24  -26.83  -26.43  -26.19
   3   -23.68  -24.07  -24.90  -26.30  -28.54  -32.16  -31.31  -28.61  -27.14  -26.48
   4   -22.49  -22.81  -23.46  -24.48  -25.91  -27.79  -27.52  -26.18  -25.30  -24.87
   5   -20.69  -20.87  -21.20  -21.68  -22.21  -22.67  -22.76  -22.58  -22.36  -22.23
   6   -18.80  -18.88  -19.04  -19.25  -19.46  -19.64  -19.73  -19.74  -19.71  -19.69
   7   -17.15  -17.19  -17.26  -17.35  -17.45  -17.53  -17.59  -17.62  -17.64  -17.64
   8   -15.87  -15.89  -15.92  -15.97  -16.01  -16.06  -16.10  -16.12  -16.14  -16.14
   9   -15.01  -15.02  -15.04  -15.06  -15.09  -15.12  -15.14  -15.16  -15.17  -15.17
  10   -14.58  -14.58  -14.60  -14.61  -14.63  -14.65  -14.67  -14.68  -14.69  -14.69

 HEAD WILL BE SAVED ON UNIT   21 AT END OF TIME STEP    6, STRESS PERIOD   24

 DRAWDOWN WILL BE SAVED ON UNIT   22 AT END OF TIME STEP    6, STRESS PERIOD   24
1
  VOLUMETRIC BUDGET FOR ENTIRE MODEL AT END OF TIME STEP    6, STRESS PERIOD  24
  ------------------------------------------------------------------------------

     CUMULATIVE VOLUMES      L**3       RATES FOR THIS TIME STEP      L**3/T
     ------------------                 ------------------------

           IN:                                      IN:
           ---                                      ---
             STORAGE =    36929664.0000               STORAGE =        3368.2891
       CONSTANT HEAD =      488189.6250         CONSTANT HEAD =         128.8968
               WELLS =   252086960.0000                 WELLS =       30000.0000
    INST. IB STORAGE =    52604856.0000      INST. IB STORAGE =        5073.8657
    DELAY IB STORAGE =   131450304.0000      DELAY IB STORAGE =       15277.9746

            TOTAL IN =   473560000.0000              TOTAL IN =       53849.0273

          OUT:                                     OUT:
          ----                                     ----
             STORAGE =           0.0000               STORAGE =           0.0000
       CONSTANT HEAD =   221503120.0000         CONSTANT HEAD =       23849.0781
               WELLS =   252056960.0000                 WELLS =       30000.0000
    INST. IB STORAGE =           0.0000      INST. IB STORAGE =           0.0000
    DELAY IB STORAGE =           0.0000      DELAY IB STORAGE =           0.0000

           TOTAL OUT =   473560064.0000             TOTAL OUT =       53849.0781

            IN - OUT =         -64.0000              IN - OUT =      -5.0781E-02

 PERCENT DISCREPANCY =          -0.00     PERCENT DISCREPANCY =          -0.00






         TIME SUMMARY AT END OF TIME STEP    6 IN STRESS PERIOD   24
                    SECONDS     MINUTES      HOURS       DAYS        YEARS
                    -----------------------------------------------------------
   TIME STEP LENGTH 9.18681E+06 1.53113E+05  2551.9      106.33     0.29111    
 STRESS PERIOD TIME 3.15619E+07 5.26032E+05  8767.2      365.30      1.0001    
         TOTAL TIME 7.26010E+08 1.21002E+07 2.01670E+05  8402.9      23.006    
1

                               VOLUMETRIC BUDGET FOR SYSTEMS OF DELAY INTERBEDS
                                          AT END OF TIME STEP  6 IN STRESS PERIOD 24

          |   C U M U L A T I V E   V O L U M E S   L**3           | R A T E S   F O R  T H I S  T I M E  S T E P   L**3/T  |
   SYSTEM |    CHANGE IN     BOUNDARY                    PERCENT   |    CHANGE IN     BOUNDARY                    PERCENT   |
   NUMBER |     STORAGE        FLOW           SUM      DISCREPANCY |     STORAGE        FLOW           SUM      DISCREPANCY |
  --------|--------------------------------------------------------|--------------------------------------------------------|
      1     94050.        -94050.        0.15625E-01    0.16613E-04     8.9954        -8.9954       -0.95367E-06   -0.10602E-04
      2    0.13136E+09   -0.13136E+09     8.0000        0.60903E-05     15269.        -15269.       -0.19531E-02   -0.12791E-04
  --------|--------------------------------------------------------|--------------------------------------------------------|
 TOTALS:    0.13145E+09   -0.13145E+09     8.0000        0.60860E-05     15278.        -15278.       -0.19531E-02   -0.12784E-04
1
                            STRESS PERIOD NO.   25, LENGTH =   365.3000    
                            -----------------------------------------------

                              NUMBER OF TIME STEPS =     6

                               MULTIPLIER FOR DELT =     1.300

                            INITIAL TIME STEP SIZE =   28.63744    

 REUSING NON-PARAMETER WELLS FROM LAST STRESS PERIOD

     14 WELLS
 
 SOLVING FOR HEAD 

    43 ITERATIONS FOR TIME STEP   1 IN STRESS PERIOD   25

 MAXIMUM HEAD CHANGE FOR EACH ITERATION:

    HEAD CHANGE   HEAD CHANGE   HEAD CHANGE   HEAD CHANGE   HEAD CHANGE
  LAYER,ROW,COL LAYER,ROW,COL LAYER,ROW,COL LAYER,ROW,COL LAYER,ROW,COL
 ----------------------------------------------------------------------
      1.839         2.879         2.461        -1.183        -2.585    
  (  3,  1, 10) (  3,  1,  3) (  3,  2,  5) (  3,  2, 10) (  3,  1,  1)
    -0.2173       -0.6020        -1.357        -1.087        0.8515    
  (  3,  1, 10) (  3,  1,  1) (  3,  1, 10) (  3,  4,  1) (  3, 10,  1)
    -0.5673E-01   -0.9121E-02   -0.4416E-02   -0.2999E-02   -0.1406E-02
  (  2,  7,  1) (  2,  1,  2) (  3,  2,  7) (  3,  4,  5) (  3,  3,  1)
    -0.1293E-02    0.9324E-03   -0.6434E-03    0.1320E-02    0.5403E-03
  (  3,  4,  5) (  3, 10,  1) (  3,  6,  4) (  3,  7,  9) (  3,  2,  9)
     0.1330E-02    0.1156E-02    0.1634E-02    0.1682E-02    0.1375E-02
  (  3,  1,  1) (  3,  2,  9) (  3, 10, 10) (  3,  1,  8) (  3,  2,  9)
     0.9074E-03    0.9159E-03    0.6437E-03    0.4505E-03    0.3402E-03
  (  3,  1, 10) (  3,  2,  9) (  3,  2,  9) (  3,  2,  9) (  3,  2,  9)
     0.2107E-03    0.2263E-03    0.1556E-03    0.1107E-03    0.8147E-04
  (  3,  2,  9) (  3,  2,  9) (  3,  2,  9) (  3,  2,  9) (  3,  2,  9)
     0.5351E-04    0.5475E-04    0.3800E-04    0.2653E-04    0.2113E-04
  (  3,  2,  9) (  3,  2,  9) (  3,  2,  9) (  3,  2,  9) (  3,  2,  9)
     0.1300E-04    0.1324E-04    0.8095E-05
  (  3,  2,  9) (  3,  2,  9) (  3,  2,  9)


 OUTPUT CONTROL FOR STRESS PERIOD   25   TIME STEP    1
    SAVE HEAD FOR ALL LAYERS

 HEAD WILL BE SAVED ON UNIT   21 AT END OF TIME STEP    1, STRESS PERIOD   25
 
 SOLVING FOR HEAD 
    41 ITERATIONS FOR TIME STEP   2 IN STRESS PERIOD   25

 MAXIMUM HEAD CHANGE FOR EACH ITERATION:

    HEAD CHANGE   HEAD CHANGE   HEAD CHANGE   HEAD CHANGE   HEAD CHANGE
  LAYER,ROW,COL LAYER,ROW,COL LAYER,ROW,COL LAYER,ROW,COL LAYER,ROW,COL
 ----------------------------------------------------------------------
      1.250         2.766         2.453        -1.046        -2.786    
  (  3,  1,  7) (  3,  1, 10) (  3,  1,  1) (  3,  1,  4) (  3,  1,  1)
    -0.1776       -0.4728        -1.190        0.2036       -0.3912E-01
  (  3,  1, 10) (  3,  1,  1) (  3,  1, 10) (  3, 10,  1) (  2,  1,  1)
    -0.5099E-01   -0.1217E-01   -0.1848E-02   -0.1444E-02   -0.1531E-02
  (  2,  7,  1) (  2,  1,  2) (  3,  4,  1) (  3,  2,  1) (  3,  3,  6)
     0.1191E-02    0.4058E-03    0.2130E-02    0.1019E-02    0.2472E-02
  (  3, 10,  5) (  3,  6,  1) (  3,  5,  1) (  3,  4,  5) (  3,  1,  4)
     0.1244E-02    0.2532E-02    0.2024E-02    0.1509E-02    0.1105E-02
  (  3,  1,  9) (  3,  9,  2) (  3,  2,  1) (  3,  1,  9) (  3,  1,  9)
     0.7157E-03    0.7016E-03    0.5102E-03    0.3474E-03    0.2579E-03
  (  3,  1,  9) (  3,  2,  2) (  3,  1,  9) (  3,  1,  9) (  3,  1,  9)
     0.1625E-03    0.1681E-03    0.1145E-03    0.8123E-04    0.6114E-04
  (  3,  1,  9) (  3,  1,  9) (  3,  1,  9) (  3,  1,  9) (  3,  1,  9)
     0.3862E-04    0.3739E-04    0.2822E-04    0.1989E-04    0.1375E-04
  (  3,  1,  9) (  3,  4,  6) (  3,  1,  9) (  3,  1,  9) (  3,  1,  9)
     0.9388E-05
  (  3,  1,  9)


 OUTPUT CONTROL FOR STRESS PERIOD   25   TIME STEP    2
    SAVE HEAD FOR ALL LAYERS

 HEAD WILL BE SAVED ON UNIT   21 AT END OF TIME STEP    2, STRESS PERIOD   25
 
 SOLVING FOR HEAD 
    39 ITERATIONS FOR TIME STEP   3 IN STRESS PERIOD   25

 MAXIMUM HEAD CHANGE FOR EACH ITERATION:

    HEAD CHANGE   HEAD CHANGE   HEAD CHANGE   HEAD CHANGE   HEAD CHANGE
  LAYER,ROW,COL LAYER,ROW,COL LAYER,ROW,COL LAYER,ROW,COL LAYER,ROW,COL
 ----------------------------------------------------------------------
     0.7330         2.248         2.213       -0.7995        -2.876    
  (  3,  3,  1) (  3,  1, 10) (  3,  1,  1) (  3,  1,  4) (  3,  1,  1)
     0.1782       -0.3417       -0.9421        0.4780       -0.3281E-01
  (  2,  5,  1) (  3,  1,  1) (  3,  1, 10) (  3, 10,  1) (  2,  1,  1)
    -0.4333E-01   -0.1316E-01   -0.4488E-02   -0.1936E-02   -0.1462E-02
  (  2,  6,  1) (  2,  1,  2) (  3,  3,  6) (  3,  5, 10) (  3,  3,  7)
     0.9688E-03    0.1637E-02    0.1724E-02    0.2522E-02    0.2830E-02
  (  3,  1,  6) (  3, 10, 10) (  3,  1,  8) (  3, 10, 10) (  3,  1,  1)
     0.1643E-02    0.2020E-02    0.1423E-02    0.8875E-03    0.6344E-03
  (  3,  1,  1) (  3,  3,  5) (  3,  3,  5) (  3,  3,  5) (  3,  3,  5)
     0.3707E-03    0.4398E-03    0.3091E-03    0.1947E-03    0.1382E-03
  (  3,  1, 10) (  3,  3,  5) (  3,  3,  5) (  3,  3,  5) (  3,  3,  5)
     0.7634E-04    0.9659E-04    0.6796E-04    0.4273E-04    0.3086E-04
  (  3,  1,  1) (  3,  3,  5) (  3,  3,  5) (  3,  3,  5) (  3,  3,  5)
     0.1721E-04    0.2124E-04    0.1538E-04    0.9776E-05
  (  3,  1,  8) (  3,  3,  4) (  3,  3,  5) (  3,  3,  5)


 OUTPUT CONTROL FOR STRESS PERIOD   25   TIME STEP    3
    SAVE HEAD FOR ALL LAYERS

 HEAD WILL BE SAVED ON UNIT   21 AT END OF TIME STEP    3, STRESS PERIOD   25
 
 SOLVING FOR HEAD 
    35 ITERATIONS FOR TIME STEP   4 IN STRESS PERIOD   25

 MAXIMUM HEAD CHANGE FOR EACH ITERATION:

    HEAD CHANGE   HEAD CHANGE   HEAD CHANGE   HEAD CHANGE   HEAD CHANGE
  LAYER,ROW,COL LAYER,ROW,COL LAYER,ROW,COL LAYER,ROW,COL LAYER,ROW,COL
 ----------------------------------------------------------------------
     0.7597         1.379         1.597       -0.6714        -2.707    
  (  3,  1, 10) (  3,  1,  7) (  3,  2,  1) (  3, 10, 10) (  3,  1,  1)
     0.4772        0.6728E-01   -0.1925E-01   -0.1377E-01   -0.1001E-01
  (  2,  3,  6) (  2, 10,  2) (  3,  1,  6) (  3,  1,  6) (  3,  3,  6)
    -0.4305E-02   -0.5958E-02   -0.2842E-02   -0.1624E-02    0.2119E-02
  (  3,  1, 10) (  3,  2,  8) (  3,  6,  4) (  3,  2,  7) (  3,  1,  1)
     0.1575E-02    0.2955E-02    0.2661E-02    0.1617E-02    0.1210E-02
  (  3, 10,  1) (  3,  1,  1) (  3,  1, 10) (  3,  1, 10) (  3,  1, 10)
     0.6156E-03    0.8095E-03    0.5526E-03    0.3578E-03    0.2347E-03
  (  3,  1,  1) (  3,  1, 10) (  3,  1,  1) (  3,  1, 10) (  3,  1, 10)
     0.1469E-03    0.1576E-03    0.1188E-03    0.6738E-04    0.5325E-04
  (  3,  1, 10) (  3,  1,  1) (  3,  1, 10) (  3,  1, 10) (  3,  1, 10)
     0.2859E-04    0.3361E-04    0.2297E-04    0.1611E-04    0.9654E-05
  (  2,  7,  1) (  3,  1, 10) (  3,  1,  1) (  3,  1, 10) (  3,  1, 10)


 OUTPUT CONTROL FOR STRESS PERIOD   25   TIME STEP    4
    SAVE HEAD FOR ALL LAYERS

 HEAD WILL BE SAVED ON UNIT   21 AT END OF TIME STEP    4, STRESS PERIOD   25
 
 SOLVING FOR HEAD 
    31 ITERATIONS FOR TIME STEP   5 IN STRESS PERIOD   25

 MAXIMUM HEAD CHANGE FOR EACH ITERATION:

    HEAD CHANGE   HEAD CHANGE   HEAD CHANGE   HEAD CHANGE   HEAD CHANGE
  LAYER,ROW,COL LAYER,ROW,COL LAYER,ROW,COL LAYER,ROW,COL LAYER,ROW,COL
 ----------------------------------------------------------------------
     0.4960        0.9364        0.9873       -0.8129        -2.480    
  (  3,  1, 10) (  3,  1,  9) (  3,  1,  1) (  3, 10, 10) (  3,  1,  1)
     0.6904        0.3983        0.1341        0.6919E-01   -0.4709E-01
  (  3,  1, 10) (  3,  9,  6) (  2,  1,  7) (  2, 10,  1) (  2, 10, 10)
     0.7565E-01    0.1332E-01   -0.6031E-02   -0.3153E-02   -0.2082E-02
  (  2,  6,  1) (  2,  1,  2) (  3,  7,  3) (  3,  6,  1) (  3,  7,  2)
    -0.1982E-02   -0.1406E-02   -0.1089E-02   -0.5953E-03   -0.3747E-03
  (  2,  6,  1) (  3,  7,  2) (  3,  7,  3) (  3,  7,  2) (  3,  6,  2)
    -0.1557E-03   -0.2612E-03   -0.2074E-03   -0.1084E-03   -0.7349E-04
  (  3, 10,  8) (  3,  8,  3) (  3,  7,  3) (  3,  6,  2) (  3,  8,  3)
    -0.2750E-04   -0.4947E-04   -0.3797E-04   -0.2157E-04   -0.1294E-04
  (  3,  6,  1) (  3,  7,  3) (  3,  8,  3) (  3,  8,  4) (  3,  8,  3)
    -0.5599E-05
  (  3,  7,  1)


 OUTPUT CONTROL FOR STRESS PERIOD   25   TIME STEP    5
    SAVE HEAD FOR ALL LAYERS

 HEAD WILL BE SAVED ON UNIT   21 AT END OF TIME STEP    5, STRESS PERIOD   25
 
 SOLVING FOR HEAD 
    32 ITERATIONS FOR TIME STEP   6 IN STRESS PERIOD   25

 MAXIMUM HEAD CHANGE FOR EACH ITERATION:

    HEAD CHANGE   HEAD CHANGE   HEAD CHANGE   HEAD CHANGE   HEAD CHANGE
  LAYER,ROW,COL LAYER,ROW,COL LAYER,ROW,COL LAYER,ROW,COL LAYER,ROW,COL
 ----------------------------------------------------------------------
     0.2969        0.6126        0.4535       -0.9218        -1.221    
  (  3,  1,  1) (  3,  1, 10) (  3,  3,  3) (  3,  1, 10) (  3,  1,  1)
     0.5751        0.3578        0.1049        0.3915E-01   -0.3490E-01
  (  3,  1, 10) (  3,  2,  2) (  2,  1,  9) (  2, 10,  1) (  2, 10, 10)
     0.3442E-01   -0.1289E-01   -0.1061E-01   -0.5291E-02   -0.3168E-02
  (  2,  7,  1) (  3,  2,  6) (  3,  3,  5) (  3,  2,  6) (  3,  3,  6)
    -0.2578E-02   -0.2107E-02   -0.1816E-02   -0.8869E-03   -0.5536E-03
  (  2,  7,  1) (  3,  3,  6) (  3,  3,  5) (  3,  3,  6) (  3,  3,  6)
    -0.4550E-03   -0.3659E-03   -0.3068E-03   -0.1562E-03   -0.9386E-04
  (  2,  9,  1) (  3,  2,  6) (  3,  3,  5) (  3,  3,  6) (  3,  3,  6)
    -0.4361E-04   -0.6198E-04   -0.5434E-04   -0.2717E-04   -0.1728E-04
  (  2,  8,  1) (  3,  3,  6) (  3,  3,  6) (  3,  3,  6) (  3,  3,  7)
    -0.1290E-04   -0.4308E-05
  (  2,  9,  1) (  3,  3,  6)


 OUTPUT CONTROL FOR STRESS PERIOD   25   TIME STEP    6
    PRINT BUDGET
    PRINT HEAD FOR ALL LAYERS
    SAVE HEAD FOR ALL LAYERS
    SAVE DRAWDOWN FOR ALL LAYERS
1
              HEAD IN LAYER   1 AT END OF TIME STEP   6 IN STRESS PERIOD   25
  ---------------------------------------------------------------------------

           1       2       3       4       5       6       7       8       9      10
 ...................................................................................
   1    20.14   19.79   19.12   18.69   18.49   18.49   18.69   19.11   19.78   20.13
   2    19.13   18.62   18.19   17.89   17.74   17.74   17.89   18.19   18.61   19.12
   3    17.69   17.19   16.82   16.57   16.44   16.44   16.56   16.81   17.18   17.68
   4    15.73   15.30   14.99   14.80   14.71   14.70   14.80   14.99   15.29   15.72
   5    12.96   12.87   12.77   12.68   12.64   12.64   12.68   12.76   12.86   12.95
   6    10.53   10.51   10.47   10.43   10.41   10.41   10.43   10.46   10.50   10.53
   7     8.21    8.19    8.16    8.13    8.10    8.10    8.12    8.16    8.19    8.21
   8     5.98    5.93    5.85    5.76    5.71    5.71    5.76    5.84    5.92    5.97
   9     3.93    3.79    3.53    3.24    3.12    3.12    3.24    3.53    3.79    3.93
  10     2.47    2.11    1.33    0.00    0.00    0.00    0.00    1.33    2.11    2.47
1
              HEAD IN LAYER   2 AT END OF TIME STEP   6 IN STRESS PERIOD   25
  ---------------------------------------------------------------------------

           1       2       3       4       5       6       7       8       9      10
 ...................................................................................
   1    -4.08   -4.08   -4.08   -4.09   -4.10   -4.12   -4.14   -4.16   -4.18   -4.21
   2    -4.16   -3.28   -3.58   -4.07   -4.57   -4.93   -4.91   -4.58   -4.22   -4.36
   3    -4.28   -3.80   -4.30   -5.11   -6.23   -7.19   -7.06   -6.10   -5.17   -4.51
   4    -4.42   -4.08   -4.48   -5.08   -5.84   -6.68   -6.54   -5.83   -5.20   -4.67
   5    -4.58   -4.29   -4.46   -4.73   -5.02   -5.25   -5.27   -5.14   -4.97   -4.81
   6    -4.76   -4.46   -4.52   -4.63   -4.75   -4.84   -4.88   -4.87   -4.85   -4.96
   7    -4.94   -4.75   -4.77   -4.83   -4.89   -4.93   -4.95   -4.95   -4.97   -5.11
   8    -5.14   -5.19   -5.25   -5.31   -5.36   -5.38   -5.38   -5.35   -5.31   -5.26
   9    -5.33   -5.74   -5.93   -6.07   -6.15   -6.16   -6.11   -5.99   -5.82   -5.42
  10    -5.51   -5.55   -5.59   -5.62   -5.63   -5.64   -5.63   -5.61   -5.59   -5.56
1
              HEAD IN LAYER   3 AT END OF TIME STEP   6 IN STRESS PERIOD   25
  ---------------------------------------------------------------------------

           1       2       3       4       5       6       7       8       9      10
 ...................................................................................
   1   -24.52  -24.69  -25.01  -25.42  -25.86  -26.22  -26.38  -26.38  -26.31  -26.25
   2   -24.54  -24.80  -25.31  -26.05  -26.92  -27.70  -27.78  -27.38  -26.98  -26.74
   3   -24.22  -24.61  -25.44  -26.84  -29.08  -32.70  -31.85  -29.14  -27.68  -27.02
   4   -23.02  -23.33  -23.98  -25.01  -26.44  -28.32  -28.05  -26.71  -25.83  -25.40
   5   -21.20  -21.38  -21.72  -22.19  -22.72  -23.18  -23.27  -23.09  -22.87  -22.74
   6   -19.30  -19.38  -19.54  -19.74  -19.96  -20.13  -20.22  -20.23  -20.21  -20.19
   7   -17.63  -17.66  -17.74  -17.83  -17.93  -18.01  -18.07  -18.10  -18.12  -18.12
   8   -16.33  -16.35  -16.39  -16.43  -16.48  -16.52  -16.56  -16.59  -16.60  -16.61
   9   -15.46  -15.47  -15.49  -15.52  -15.55  -15.57  -15.59  -15.61  -15.62  -15.63
  10   -15.03  -15.03  -15.05  -15.06  -15.08  -15.10  -15.12  -15.13  -15.14  -15.14

 HEAD WILL BE SAVED ON UNIT   21 AT END OF TIME STEP    6, STRESS PERIOD   25

 DRAWDOWN WILL BE SAVED ON UNIT   22 AT END OF TIME STEP    6, STRESS PERIOD   25
1
  VOLUMETRIC BUDGET FOR ENTIRE MODEL AT END OF TIME STEP    6, STRESS PERIOD  25
  ------------------------------------------------------------------------------

     CUMULATIVE VOLUMES      L**3       RATES FOR THIS TIME STEP      L**3/T
     ------------------                 ------------------------

           IN:                                      IN:
           ---                                      ---
             STORAGE =    38146640.0000               STORAGE =        3306.9048
       CONSTANT HEAD =      536634.2500         CONSTANT HEAD =         135.1015
               WELLS =   263045952.0000                 WELLS =       30000.0000
    INST. IB STORAGE =    54452428.0000      INST. IB STORAGE =        5046.0322
    DELAY IB STORAGE =   137008848.0000      DELAY IB STORAGE =       15176.2041

            TOTAL IN =   493190528.0000              TOTAL IN =       53664.2422

          OUT:                                     OUT:
          ----                                     ----
             STORAGE =           0.0000               STORAGE =           0.0000
       CONSTANT HEAD =   230174640.0000         CONSTANT HEAD =       23664.3320
               WELLS =   263015952.0000                 WELLS =       30000.0000
    INST. IB STORAGE =           0.0000      INST. IB STORAGE =           0.0000
    DELAY IB STORAGE =           0.0000      DELAY IB STORAGE =           0.0000

           TOTAL OUT =   493190592.0000             TOTAL OUT =       53664.3320

            IN - OUT =         -64.0000              IN - OUT =      -8.9844E-02

 PERCENT DISCREPANCY =          -0.00     PERCENT DISCREPANCY =          -0.00






         TIME SUMMARY AT END OF TIME STEP    6 IN STRESS PERIOD   25
                    SECONDS     MINUTES      HOURS       DAYS        YEARS
                    -----------------------------------------------------------
   TIME STEP LENGTH 9.18681E+06 1.53113E+05  2551.9      106.33     0.29111    
 STRESS PERIOD TIME 3.15619E+07 5.26032E+05  8767.2      365.30      1.0001    
         TOTAL TIME 7.57572E+08 1.26262E+07 2.10437E+05  8768.2      24.006    
1

                               VOLUMETRIC BUDGET FOR SYSTEMS OF DELAY INTERBEDS
                                          AT END OF TIME STEP  6 IN STRESS PERIOD 25

          |   C U M U L A T I V E   V O L U M E S   L**3           | R A T E S   F O R  T H I S  T I M E  S T E P   L**3/T  |
   SYSTEM |    CHANGE IN     BOUNDARY                    PERCENT   |    CHANGE IN     BOUNDARY                    PERCENT   |
   NUMBER |     STORAGE        FLOW           SUM      DISCREPANCY |     STORAGE        FLOW           SUM      DISCREPANCY |
  --------|--------------------------------------------------------|--------------------------------------------------------|
      1     97263.        -97263.        0.15625E-01    0.16065E-04     8.8416        -8.8416         0.0000         0.0000    
      2    0.13691E+09   -0.13691E+09     16.000        0.11686E-04     15167.        -15167.       -0.97656E-03   -0.64386E-05
  --------|--------------------------------------------------------|--------------------------------------------------------|
 TOTALS:    0.13701E+09   -0.13701E+09     16.000        0.11678E-04     15176.        -15176.       -0.97656E-03   -0.64348E-05
1
                            STRESS PERIOD NO.   26, LENGTH =   365.3000    
                            -----------------------------------------------

                              NUMBER OF TIME STEPS =     6

                               MULTIPLIER FOR DELT =     1.300

                            INITIAL TIME STEP SIZE =   28.63744    

 REUSING NON-PARAMETER WELLS FROM LAST STRESS PERIOD

     14 WELLS
 
 SOLVING FOR HEAD 

    43 ITERATIONS FOR TIME STEP   1 IN STRESS PERIOD   26

 MAXIMUM HEAD CHANGE FOR EACH ITERATION:

    HEAD CHANGE   HEAD CHANGE   HEAD CHANGE   HEAD CHANGE   HEAD CHANGE
  LAYER,ROW,COL LAYER,ROW,COL LAYER,ROW,COL LAYER,ROW,COL LAYER,ROW,COL
 ----------------------------------------------------------------------
      1.257         2.889         2.632        -1.282        -2.680    
  (  3,  1, 10) (  3,  1,  7) (  3,  2,  1) (  3, 10, 10) (  3,  1,  1)
    -0.2344       -0.5857        -1.326        -1.078        0.8420    
  (  3,  1, 10) (  3,  1,  1) (  3,  1, 10) (  3,  4,  1) (  3, 10,  1)
    -0.5579E-01   -0.8361E-02   -0.4243E-02   -0.3262E-02   -0.1193E-02
  (  2,  7,  1) (  2,  1,  2) (  3,  2,  8) (  3,  3,  5) (  3,  2,  4)
    -0.1489E-02    0.6900E-03   -0.8047E-03    0.1387E-02    0.5400E-03
  (  3,  3,  1) (  3, 10, 10) (  3,  3,  4) (  3,  9,  6) (  3,  1,  6)
     0.1397E-02    0.1323E-02    0.1434E-02    0.1618E-02    0.1370E-02
  (  3, 10, 10) (  3, 10,  1) (  3, 10, 10) (  3,  1, 10) (  3,  1,  6)
     0.9219E-03    0.8704E-03    0.6339E-03    0.4506E-03    0.3388E-03
  (  3,  1,  6) (  3,  1,  6) (  3,  1,  6) (  3,  1,  6) (  3,  1,  6)
     0.2233E-03    0.2164E-03    0.1527E-03    0.1110E-03    0.8261E-04
  (  3,  1,  6) (  3,  1,  6) (  3,  1,  6) (  3,  1,  6) (  3,  1,  6)
     0.5585E-04    0.5230E-04    0.3696E-04    0.2791E-04    0.2030E-04
  (  3,  1,  6) (  3,  1,  6) (  3,  1,  6) (  3,  1,  6) (  3,  1,  6)
     0.1373E-04    0.1357E-04    0.6975E-05
  (  3,  1,  6) (  3,  1,  6) (  3,  1,  6)


 OUTPUT CONTROL FOR STRESS PERIOD   26   TIME STEP    1
    SAVE HEAD FOR ALL LAYERS

 HEAD WILL BE SAVED ON UNIT   21 AT END OF TIME STEP    1, STRESS PERIOD   26
 
 SOLVING FOR HEAD 
    41 ITERATIONS FOR TIME STEP   2 IN STRESS PERIOD   26

 MAXIMUM HEAD CHANGE FOR EACH ITERATION:

    HEAD CHANGE   HEAD CHANGE   HEAD CHANGE   HEAD CHANGE   HEAD CHANGE
  LAYER,ROW,COL LAYER,ROW,COL LAYER,ROW,COL LAYER,ROW,COL LAYER,ROW,COL
 ----------------------------------------------------------------------
      1.070         2.738         2.243       -0.8825        -2.778    
  (  3,  1,  1) (  3,  1, 10) (  3,  3,  3) (  3, 10, 10) (  3,  1,  1)
    -0.1844       -0.4720        -1.189        0.1967       -0.4017E-01
  (  3,  1, 10) (  3,  1,  1) (  3,  1, 10) (  2,  3,  7) (  2,  1,  1)
    -0.4978E-01   -0.1262E-01   -0.2479E-02   -0.1522E-02   -0.1420E-02
  (  2,  7,  1) (  2,  1,  2) (  3,  4,  6) (  3,  1,  1) (  3,  2, 10)
     0.1160E-02    0.4650E-03    0.2228E-02    0.9961E-03    0.2499E-02
  (  3,  7,  1) (  3,  4,  1) (  3,  6,  1) (  3,  1,  9) (  3,  3,  1)
     0.1252E-02    0.2438E-02    0.2076E-02    0.1524E-02    0.1117E-02
  (  3,  1,  9) (  3,  9,  2) (  3,  1,  1) (  3,  1,  3) (  3,  1,  3)
     0.7074E-03    0.7261E-03    0.5132E-03    0.3527E-03    0.2617E-03
  (  3,  1,  9) (  3,  1,  3) (  3,  1,  3) (  3,  1,  3) (  3,  1,  3)
     0.1618E-03    0.1693E-03    0.1187E-03    0.8394E-04    0.6101E-04
  (  3,  1,  3) (  3,  1,  3) (  3,  1,  3) (  3,  1,  3) (  3,  1,  3)
     0.3983E-04    0.3884E-04    0.2793E-04    0.1980E-04    0.1409E-04
  (  3,  1,  9) (  3,  1,  3) (  3,  1,  3) (  3,  1,  3) (  3,  1,  9)
     0.9928E-05
  (  3,  1,  3)


 OUTPUT CONTROL FOR STRESS PERIOD   26   TIME STEP    2
    SAVE HEAD FOR ALL LAYERS

 HEAD WILL BE SAVED ON UNIT   21 AT END OF TIME STEP    2, STRESS PERIOD   26
 
 SOLVING FOR HEAD 
    39 ITERATIONS FOR TIME STEP   3 IN STRESS PERIOD   26

 MAXIMUM HEAD CHANGE FOR EACH ITERATION:

    HEAD CHANGE   HEAD CHANGE   HEAD CHANGE   HEAD CHANGE   HEAD CHANGE
  LAYER,ROW,COL LAYER,ROW,COL LAYER,ROW,COL LAYER,ROW,COL LAYER,ROW,COL
 ----------------------------------------------------------------------
      1.043         1.837         1.856       -0.7753        -2.775    
  (  3,  1, 10) (  3,  1,  3) (  3,  3,  3) (  3, 10, 10) (  3,  1,  1)
     0.3166       -0.3313       -0.8914        0.4714        0.3062E-01
  (  2,  3,  6) (  3,  1,  1) (  3,  1, 10) (  3,  1, 10) (  2, 10,  9)
    -0.4052E-01   -0.1350E-01   -0.4043E-02   -0.1711E-02   -0.8477E-03
  (  2,  6,  1) (  2,  1,  2) (  3,  2,  9) (  3,  7,  1) (  3,  2,  1)
    -0.4111E-03    0.1590E-02    0.1632E-02    0.2458E-02    0.2579E-02
  (  2,  4,  1) (  3, 10, 10) (  3,  3,  1) (  3, 10, 10) (  3,  1,  1)
     0.1586E-02    0.1928E-02    0.1334E-02    0.8424E-03    0.5942E-03
  (  3,  1,  1) (  3,  2,  3) (  3,  3,  4) (  3,  1,  5) (  3,  3,  4)
     0.3520E-03    0.4109E-03    0.2888E-03    0.1827E-03    0.1336E-03
  (  3,  1,  5) (  3,  2,  3) (  3,  3,  4) (  3,  3,  4) (  3,  1,  5)
     0.7481E-04    0.9080E-04    0.6394E-04    0.4161E-04    0.2947E-04
  (  3,  1,  5) (  3,  2,  3) (  3,  3,  4) (  3,  1,  5) (  3,  3,  8)
     0.1791E-04    0.1983E-04    0.1391E-04    0.9053E-05
  (  3,  1,  5) (  3,  3,  4) (  3,  1,  5) (  3,  1,  1)


 OUTPUT CONTROL FOR STRESS PERIOD   26   TIME STEP    3
    SAVE HEAD FOR ALL LAYERS

 HEAD WILL BE SAVED ON UNIT   21 AT END OF TIME STEP    3, STRESS PERIOD   26
 
 SOLVING FOR HEAD 
    36 ITERATIONS FOR TIME STEP   4 IN STRESS PERIOD   26

 MAXIMUM HEAD CHANGE FOR EACH ITERATION:

    HEAD CHANGE   HEAD CHANGE   HEAD CHANGE   HEAD CHANGE   HEAD CHANGE
  LAYER,ROW,COL LAYER,ROW,COL LAYER,ROW,COL LAYER,ROW,COL LAYER,ROW,COL
 ----------------------------------------------------------------------
     0.7342         1.399         1.653       -0.7293        -2.787    
  (  3,  2, 10) (  3,  1,  9) (  3,  1,  1) (  3, 10, 10) (  3,  1,  1)
     0.6122        0.6134E-01   -0.1598E-01   -0.1359E-01   -0.1002E-01
  (  2,  3,  6) (  2, 10,  2) (  3,  1,  1) (  3,  1,  9) (  3,  3,  2)
    -0.4252E-02   -0.6155E-02   -0.3001E-02   -0.1675E-02    0.1798E-02
  (  3,  1, 10) (  3,  2,  7) (  3,  6,  3) (  3,  2,  7) (  3,  1, 10)
     0.1288E-02    0.2735E-02    0.2486E-02    0.1559E-02    0.1116E-02
  (  3, 10,  1) (  3,  1,  1) (  3,  1,  6) (  3,  1,  8) (  3,  1,  5)
     0.5783E-03    0.7619E-03    0.5125E-03    0.3285E-03    0.2249E-03
  (  3,  1, 10) (  3,  1, 10) (  3,  1,  6) (  3,  1,  5) (  3,  1, 10)
     0.1307E-03    0.1459E-03    0.1099E-03    0.6454E-04    0.4727E-04
  (  3,  1, 10) (  3,  2,  9) (  3,  1,  5) (  3,  1, 10) (  3,  1,  5)
     0.2791E-04    0.3115E-04    0.2126E-04    0.1433E-04    0.1053E-04
  (  2,  7,  1) (  3,  1, 10) (  3,  2,  9) (  3,  1,  5) (  3,  1,  8)
     0.5194E-05
  (  2,  6,  1)


 OUTPUT CONTROL FOR STRESS PERIOD   26   TIME STEP    4
    SAVE HEAD FOR ALL LAYERS

 HEAD WILL BE SAVED ON UNIT   21 AT END OF TIME STEP    4, STRESS PERIOD   26
 
 SOLVING FOR HEAD 
    31 ITERATIONS FOR TIME STEP   5 IN STRESS PERIOD   26

 MAXIMUM HEAD CHANGE FOR EACH ITERATION:

    HEAD CHANGE   HEAD CHANGE   HEAD CHANGE   HEAD CHANGE   HEAD CHANGE
  LAYER,ROW,COL LAYER,ROW,COL LAYER,ROW,COL LAYER,ROW,COL LAYER,ROW,COL
 ----------------------------------------------------------------------
     0.6131         1.058        0.9728       -0.8365        -2.475    
  (  3,  1,  1) (  3,  1, 10) (  3,  3,  4) (  3, 10, 10) (  3,  1,  1)
     0.7027        0.4008        0.1354        0.6997E-01   -0.4790E-01
  (  3,  1, 10) (  3,  9,  3) (  2,  1,  7) (  2, 10,  1) (  2, 10, 10)
     0.7616E-01    0.1342E-01   -0.5988E-02   -0.3126E-02   -0.2078E-02
  (  2,  6,  1) (  2,  1,  2) (  3,  7,  3) (  3,  8,  2) (  3,  8,  2)
    -0.2063E-02   -0.1406E-02   -0.1097E-02   -0.5884E-03   -0.3791E-03
  (  2,  6,  1) (  3,  8,  3) (  3,  8,  3) (  3,  8,  3) (  3,  8,  3)
    -0.1527E-03   -0.2639E-03   -0.2056E-03   -0.1091E-03   -0.7281E-04
  (  3,  6,  1) (  3,  8,  3) (  3,  8,  3) (  3,  8,  4) (  3,  8,  3)
    -0.2828E-04   -0.4940E-04   -0.3780E-04   -0.2118E-04   -0.1361E-04
  (  3,  9,  1) (  3,  8,  3) (  3,  8,  3) (  3,  8,  2) (  3,  8,  4)
    -0.5780E-05
  (  3,  6,  1)


 OUTPUT CONTROL FOR STRESS PERIOD   26   TIME STEP    5
    SAVE HEAD FOR ALL LAYERS

 HEAD WILL BE SAVED ON UNIT   21 AT END OF TIME STEP    5, STRESS PERIOD   26
 
 SOLVING FOR HEAD 
    32 ITERATIONS FOR TIME STEP   6 IN STRESS PERIOD   26

 MAXIMUM HEAD CHANGE FOR EACH ITERATION:

    HEAD CHANGE   HEAD CHANGE   HEAD CHANGE   HEAD CHANGE   HEAD CHANGE
  LAYER,ROW,COL LAYER,ROW,COL LAYER,ROW,COL LAYER,ROW,COL LAYER,ROW,COL
 ----------------------------------------------------------------------
     0.3287        0.6037        0.4184       -0.9311        -1.140    
  (  3,  1,  1) (  3,  1, 10) (  3,  3,  5) (  3,  1, 10) (  3,  1,  1)
     0.5343        0.3296        0.9590E-01    0.3518E-01   -0.3194E-01
  (  3,  1, 10) (  3,  2,  2) (  2,  1,  9) (  2, 10,  1) (  2, 10, 10)
     0.3144E-01   -0.1195E-01   -0.9746E-02   -0.4922E-02   -0.2917E-02
  (  2,  7,  1) (  3,  2,  7) (  3,  3,  5) (  3,  2,  7) (  3,  2,  6)
    -0.2362E-02   -0.1952E-02   -0.1685E-02   -0.8137E-03   -0.5172E-03
  (  2,  7,  1) (  3,  2,  6) (  3,  3,  5) (  3,  3,  6) (  3,  3,  6)
    -0.4117E-03   -0.3411E-03   -0.2807E-03   -0.1453E-03   -0.8631E-04
  (  2,  9,  1) (  3,  2,  7) (  3,  3,  5) (  3,  3,  6) (  3,  3,  6)
    -0.3928E-04   -0.5884E-04   -0.5019E-04   -0.2411E-04   -0.1651E-04
  (  2,  8,  1) (  3,  3,  6) (  3,  3,  5) (  3,  3,  6) (  3,  2,  6)
    -0.1148E-04   -0.4018E-05
  (  2,  9,  1) (  3,  3,  3)


 OUTPUT CONTROL FOR STRESS PERIOD   26   TIME STEP    6
    PRINT BUDGET
    PRINT HEAD FOR ALL LAYERS
    SAVE HEAD FOR ALL LAYERS
    SAVE DRAWDOWN FOR ALL LAYERS
1
              HEAD IN LAYER   1 AT END OF TIME STEP   6 IN STRESS PERIOD   26
  ---------------------------------------------------------------------------

           1       2       3       4       5       6       7       8       9      10
 ...................................................................................
   1    20.06   19.70   19.03   18.61   18.40   18.40   18.61   19.03   19.70   20.05
   2    19.05   18.54   18.11   17.81   17.65   17.65   17.80   18.10   18.53   19.04
   3    17.61   17.11   16.74   16.49   16.36   16.36   16.48   16.73   17.10   17.60
   4    15.66   15.22   14.92   14.73   14.63   14.63   14.72   14.91   15.21   15.65
   5    12.89   12.80   12.70   12.61   12.57   12.57   12.61   12.69   12.79   12.88
   6    10.47   10.44   10.40   10.37   10.35   10.35   10.37   10.40   10.44   10.46
   7     8.16    8.14    8.11    8.07    8.05    8.05    8.07    8.10    8.14    8.16
   8     5.94    5.89    5.81    5.72    5.68    5.67    5.72    5.80    5.88    5.93
   9     3.90    3.76    3.51    3.22    3.10    3.10    3.22    3.50    3.76    3.90
  10     2.45    2.10    1.32    0.00    0.00    0.00    0.00    1.32    2.09    2.45
1
              HEAD IN LAYER   2 AT END OF TIME STEP   6 IN STRESS PERIOD   26
  ---------------------------------------------------------------------------

           1       2       3       4       5       6       7       8       9      10
 ...................................................................................
   1    -4.38   -4.37   -4.37   -4.38   -4.40   -4.41   -4.43   -4.45   -4.48   -4.50
   2    -4.45   -3.58   -3.89   -4.38   -4.88   -5.24   -5.21   -4.89   -4.53   -4.65
   3    -4.56   -4.10   -4.60   -5.42   -6.53   -7.32   -7.15   -6.40   -5.47   -4.80
   4    -4.70   -4.37   -4.78   -5.38   -6.13   -6.97   -6.83   -6.13   -5.50   -4.95
   5    -4.86   -4.57   -4.75   -5.02   -5.31   -5.54   -5.56   -5.43   -5.26   -5.09
   6    -5.03   -4.74   -4.79   -4.91   -5.03   -5.12   -5.15   -5.14   -5.13   -5.23
   7    -5.21   -5.01   -5.03   -5.10   -5.15   -5.20   -5.22   -5.22   -5.23   -5.38
   8    -5.40   -5.44   -5.50   -5.57   -5.61   -5.64   -5.63   -5.60   -5.57   -5.53
   9    -5.59   -5.99   -6.17   -6.31   -6.39   -6.40   -6.35   -6.23   -6.07   -5.68
  10    -5.77   -5.81   -5.85   -5.87   -5.89   -5.89   -5.89   -5.87   -5.85   -5.82
1
              HEAD IN LAYER   3 AT END OF TIME STEP   6 IN STRESS PERIOD   26
  ---------------------------------------------------------------------------

           1       2       3       4       5       6       7       8       9      10
 ...................................................................................
   1   -25.06  -25.23  -25.55  -25.97  -26.41  -26.76  -26.93  -26.93  -26.85  -26.80
   2   -25.08  -25.34  -25.85  -26.59  -27.46  -28.24  -28.33  -27.92  -27.52  -27.28
   3   -24.75  -25.14  -25.97  -27.38  -29.61  -33.23  -32.38  -29.68  -28.21  -27.55
   4   -23.54  -23.85  -24.51  -25.53  -26.96  -28.84  -28.57  -27.23  -26.35  -25.92
   5   -21.71  -21.88  -22.22  -22.69  -23.23  -23.69  -23.78  -23.60  -23.38  -23.25
   6   -19.79  -19.87  -20.03  -20.23  -20.45  -20.62  -20.71  -20.73  -20.70  -20.68
   7   -18.10  -18.14  -18.21  -18.31  -18.40  -18.49  -18.55  -18.58  -18.59  -18.60
   8   -16.80  -16.82  -16.85  -16.90  -16.94  -16.99  -17.03  -17.05  -17.07  -17.07
   9   -15.92  -15.93  -15.95  -15.97  -16.00  -16.03  -16.05  -16.07  -16.08  -16.08
  10   -15.48  -15.49  -15.50  -15.52  -15.53  -15.55  -15.57  -15.58  -15.59  -15.60

 HEAD WILL BE SAVED ON UNIT   21 AT END OF TIME STEP    6, STRESS PERIOD   26

 DRAWDOWN WILL BE SAVED ON UNIT   22 AT END OF TIME STEP    6, STRESS PERIOD   26
1
  VOLUMETRIC BUDGET FOR ENTIRE MODEL AT END OF TIME STEP    6, STRESS PERIOD  26
  ------------------------------------------------------------------------------

     CUMULATIVE VOLUMES      L**3       RATES FOR THIS TIME STEP      L**3/T
     ------------------                 ------------------------

           IN:                                      IN:
           ---                                      ---
             STORAGE =    39341832.0000               STORAGE =        3248.4360
       CONSTANT HEAD =      587340.2500         CONSTANT HEAD =         141.2824
               WELLS =   274004928.0000                 WELLS =       30000.0000
    INST. IB STORAGE =    56289656.0000      INST. IB STORAGE =        5017.7334
    DELAY IB STORAGE =   142530416.0000      DELAY IB STORAGE =       15075.0156

            TOTAL IN =   512754144.0000              TOTAL IN =       53482.4688

          OUT:                                     OUT:
          ----                                     ----
             STORAGE =           0.0000               STORAGE =           0.0000
       CONSTANT HEAD =   238779360.0000         CONSTANT HEAD =       23482.5625
               WELLS =   273974944.0000                 WELLS =       30000.0000
    INST. IB STORAGE =           0.0000      INST. IB STORAGE =           0.0000
    DELAY IB STORAGE =           0.0000      DELAY IB STORAGE =           0.0000

           TOTAL OUT =   512754304.0000             TOTAL OUT =       53482.5625

            IN - OUT =        -160.0000              IN - OUT =      -9.3750E-02

 PERCENT DISCREPANCY =          -0.00     PERCENT DISCREPANCY =          -0.00






         TIME SUMMARY AT END OF TIME STEP    6 IN STRESS PERIOD   26
                    SECONDS     MINUTES      HOURS       DAYS        YEARS
                    -----------------------------------------------------------
   TIME STEP LENGTH 9.18681E+06 1.53113E+05  2551.9      106.33     0.29111    
 STRESS PERIOD TIME 3.15619E+07 5.26032E+05  8767.2      365.30      1.0001    
         TOTAL TIME 7.89134E+08 1.31522E+07 2.19204E+05  9133.5      25.006    
1

                               VOLUMETRIC BUDGET FOR SYSTEMS OF DELAY INTERBEDS
                                          AT END OF TIME STEP  6 IN STRESS PERIOD 26

          |   C U M U L A T I V E   V O L U M E S   L**3           | R A T E S   F O R  T H I S  T I M E  S T E P   L**3/T  |
   SYSTEM |    CHANGE IN     BOUNDARY                    PERCENT   |    CHANGE IN     BOUNDARY                    PERCENT   |
   NUMBER |     STORAGE        FLOW           SUM      DISCREPANCY |     STORAGE        FLOW           SUM      DISCREPANCY |
  --------|--------------------------------------------------------|--------------------------------------------------------|
      1    0.10041E+06   -0.10041E+06    0.23438E-01    0.23341E-04     8.6391        -8.6391         0.0000         0.0000    
      2    0.14243E+09   -0.14243E+09     16.000        0.11234E-04     15066.        -15066.        0.48828E-02    0.32409E-04
  --------|--------------------------------------------------------|--------------------------------------------------------|
 TOTALS:    0.14253E+09   -0.14253E+09     16.000        0.11226E-04     15075.        -15075.        0.48828E-02    0.32390E-04
1
                            STRESS PERIOD NO.   27, LENGTH =   365.3000    
                            -----------------------------------------------

                              NUMBER OF TIME STEPS =     6

                               MULTIPLIER FOR DELT =     1.300

                            INITIAL TIME STEP SIZE =   28.63744    

 REUSING NON-PARAMETER WELLS FROM LAST STRESS PERIOD

     14 WELLS
 
 SOLVING FOR HEAD 

    43 ITERATIONS FOR TIME STEP   1 IN STRESS PERIOD   27

 MAXIMUM HEAD CHANGE FOR EACH ITERATION:

    HEAD CHANGE   HEAD CHANGE   HEAD CHANGE   HEAD CHANGE   HEAD CHANGE
  LAYER,ROW,COL LAYER,ROW,COL LAYER,ROW,COL LAYER,ROW,COL LAYER,ROW,COL
 ----------------------------------------------------------------------
      1.212         3.241         2.367        -1.208        -2.588    
  (  3,  1,  1) (  3,  1, 10) (  3,  3,  6) (  3, 10, 10) (  3,  1,  1)
    -0.2212       -0.5736        -1.303        -1.044        0.8026    
  (  3,  1, 10) (  3,  1,  1) (  3,  1, 10) (  3,  4,  1) (  3, 10,  1)
     0.1422       -0.8824E-02   -0.4213E-02   -0.2906E-02   -0.1331E-02
  (  2,  4,  7) (  2,  1,  2) (  3,  2,  7) (  3,  4,  6) (  3,  2,  1)
    -0.1438E-02    0.6282E-03   -0.7075E-03    0.1319E-02    0.6571E-03
  (  3,  3,  6) (  3, 10,  1) (  3,  3,  6) (  3,  5, 10) (  3,  1,  3)
     0.1221E-02    0.1131E-02    0.1311E-02    0.1602E-02    0.1413E-02
  (  3,  9,  1) (  3,  1,  3) (  3, 10,  4) (  3,  1,  8) (  3,  1,  3)
     0.9537E-03    0.9025E-03    0.6510E-03    0.4647E-03    0.3520E-03
  (  3,  1,  3) (  3,  1,  3) (  3,  1,  3) (  3,  1,  4) (  3,  1,  3)
     0.2321E-03    0.2228E-03    0.1577E-03    0.1149E-03    0.8609E-04
  (  3,  1,  4) (  3,  1,  3) (  3,  1,  4) (  3,  1,  3) (  3,  1,  4)
     0.5753E-04    0.5432E-04    0.3905E-04    0.2762E-04    0.2154E-04
  (  3,  1,  3) (  3,  1,  3) (  3,  1,  3) (  3,  1,  4) (  3,  1,  3)
     0.1386E-04    0.1255E-04    0.8309E-05
  (  3,  1,  4) (  3,  1,  3) (  3,  1,  4)


 OUTPUT CONTROL FOR STRESS PERIOD   27   TIME STEP    1
    SAVE HEAD FOR ALL LAYERS

 HEAD WILL BE SAVED ON UNIT   21 AT END OF TIME STEP    1, STRESS PERIOD   27
 
 SOLVING FOR HEAD 
    41 ITERATIONS FOR TIME STEP   2 IN STRESS PERIOD   27

 MAXIMUM HEAD CHANGE FOR EACH ITERATION:

    HEAD CHANGE   HEAD CHANGE   HEAD CHANGE   HEAD CHANGE   HEAD CHANGE
  LAYER,ROW,COL LAYER,ROW,COL LAYER,ROW,COL LAYER,ROW,COL LAYER,ROW,COL
 ----------------------------------------------------------------------
      1.190         2.409         2.300       -0.8925        -2.669    
  (  3, 10, 10) (  3,  1,  6) (  3,  2,  1) (  3, 10, 10) (  3,  1,  1)
    -0.1830       -0.4882        -1.200        0.1851       -0.3869E-01
  (  3,  1, 10) (  3,  1,  1) (  3,  1, 10) (  3, 10,  1) (  2,  1,  1)
    -0.5181E-01   -0.1231E-01   -0.2333E-02   -0.1502E-02   -0.1358E-02
  (  2,  7,  1) (  2,  1,  2) (  3,  4,  6) (  3,  1,  9) (  3,  1, 10)
     0.1081E-02    0.5088E-03    0.2253E-02    0.8379E-03    0.2481E-02
  (  3,  6,  1) (  3,  5,  3) (  3,  6,  1) (  3,  3,  2) (  3,  2,  4)
     0.1036E-02    0.2440E-02    0.2066E-02    0.1411E-02    0.1037E-02
  (  3,  1,  1) (  3,  4,  2) (  3,  3,  2) (  3,  3,  2) (  3,  1,  1)
     0.6413E-03    0.7148E-03    0.4889E-03    0.3263E-03    0.2368E-03
  (  3,  1, 10) (  3,  3,  2) (  3,  3,  3) (  3,  1,  1) (  3,  3,  2)
     0.1534E-03    0.1635E-03    0.1129E-03    0.7453E-04    0.5477E-04
  (  3,  1,  1) (  3,  3,  2) (  3,  3,  2) (  3,  3,  2) (  3,  1,  2)
     0.3376E-04    0.3809E-04    0.2588E-04    0.1713E-04    0.1283E-04
  (  3,  1, 10) (  3,  3,  2) (  3,  3,  2) (  3,  2,  3) (  3,  3,  2)
     0.8500E-05
  (  3,  1,  1)


 OUTPUT CONTROL FOR STRESS PERIOD   27   TIME STEP    2
    SAVE HEAD FOR ALL LAYERS

 HEAD WILL BE SAVED ON UNIT   21 AT END OF TIME STEP    2, STRESS PERIOD   27
 
 SOLVING FOR HEAD 
    39 ITERATIONS FOR TIME STEP   3 IN STRESS PERIOD   27

 MAXIMUM HEAD CHANGE FOR EACH ITERATION:

    HEAD CHANGE   HEAD CHANGE   HEAD CHANGE   HEAD CHANGE   HEAD CHANGE
  LAYER,ROW,COL LAYER,ROW,COL LAYER,ROW,COL LAYER,ROW,COL LAYER,ROW,COL
 ----------------------------------------------------------------------
      1.064         2.208         1.927       -0.8151        -2.741    
  (  3,  1,  1) (  3,  1, 10) (  3,  3,  4) (  3, 10, 10) (  3,  1,  1)
     0.3820       -0.3396       -0.9243        0.4699       -0.3042E-01
  (  2,  3,  6) (  3,  1,  1) (  3,  1, 10) (  3, 10,  1) (  2,  1,  1)
    -0.4144E-01   -0.1239E-01   -0.4233E-02   -0.1876E-02   -0.1403E-02
  (  2,  7,  1) (  2,  1,  2) (  3,  3,  5) (  3,  4,  8) (  3,  2,  4)
     0.1437E-02    0.1600E-02    0.1655E-02    0.2523E-02    0.2717E-02
  (  3,  1,  3) (  3, 10, 10) (  3,  1,  8) (  3, 10,  7) (  3,  1,  1)
     0.1648E-02    0.1900E-02    0.1310E-02    0.8198E-03    0.5926E-03
  (  3,  1,  1) (  3,  2,  3) (  3,  1,  1) (  3,  1,  7) (  3,  1,  1)
     0.3536E-03    0.4062E-03    0.2792E-03    0.1802E-03    0.1266E-03
  (  3,  1, 10) (  3,  2,  3) (  3,  4,  8) (  3,  1,  1) (  3,  4,  8)
     0.7773E-04    0.8811E-04    0.6218E-04    0.3859E-04    0.2827E-04
  (  3,  1,  1) (  3,  2,  8) (  3,  4,  8) (  3,  1,  7) (  3,  1,  1)
     0.1644E-04    0.2005E-04    0.1344E-04    0.9120E-05
  (  3,  1,  7) (  3,  1,  1) (  3,  2,  8) (  3,  1,  8)


 OUTPUT CONTROL FOR STRESS PERIOD   27   TIME STEP    3
    SAVE HEAD FOR ALL LAYERS

 HEAD WILL BE SAVED ON UNIT   21 AT END OF TIME STEP    3, STRESS PERIOD   27
 
 SOLVING FOR HEAD 
    35 ITERATIONS FOR TIME STEP   4 IN STRESS PERIOD   27

 MAXIMUM HEAD CHANGE FOR EACH ITERATION:

    HEAD CHANGE   HEAD CHANGE   HEAD CHANGE   HEAD CHANGE   HEAD CHANGE
  LAYER,ROW,COL LAYER,ROW,COL LAYER,ROW,COL LAYER,ROW,COL LAYER,ROW,COL
 ----------------------------------------------------------------------
     0.8222         1.336         1.479       -0.7002        -2.617    
  (  3,  1, 10) (  3,  2,  9) (  3,  2,  4) (  3,  2, 10) (  3,  1,  1)
     0.6166        0.5095E-01   -0.1789E-01   -0.1394E-01   -0.9967E-02
  (  2,  3,  6) (  2, 10,  2) (  3,  2,  1) (  3,  2,  8) (  3,  3,  7)
    -0.4187E-02   -0.6014E-02   -0.2912E-02   -0.1485E-02    0.1612E-02
  (  3,  1,  8) (  3,  2,  7) (  3,  6,  3) (  3,  1,  4) (  3,  1,  2)
     0.1618E-02    0.2794E-02    0.2452E-02    0.1542E-02    0.1112E-02
  (  3, 10,  1) (  3,  1,  1) (  3,  1,  8) (  3,  1,  8) (  3,  1, 10)
     0.5749E-03    0.7569E-03    0.5136E-03    0.3261E-03    0.2226E-03
  (  3,  1, 10) (  3,  1, 10) (  3,  1,  1) (  3,  1, 10) (  3,  1, 10)
     0.1330E-03    0.1461E-03    0.1093E-03    0.6403E-04    0.4708E-04
  (  2,  6,  1) (  3,  2,  8) (  3,  1, 10) (  3,  1, 10) (  3,  1, 10)
     0.2878E-04    0.3057E-04    0.2208E-04    0.1435E-04    0.9165E-05
  (  2,  7,  1) (  3,  1,  9) (  3,  1,  1) (  3,  1, 10) (  3,  1, 10)


 OUTPUT CONTROL FOR STRESS PERIOD   27   TIME STEP    4
    SAVE HEAD FOR ALL LAYERS

 HEAD WILL BE SAVED ON UNIT   21 AT END OF TIME STEP    4, STRESS PERIOD   27
 
 SOLVING FOR HEAD 
    31 ITERATIONS FOR TIME STEP   5 IN STRESS PERIOD   27

 MAXIMUM HEAD CHANGE FOR EACH ITERATION:

    HEAD CHANGE   HEAD CHANGE   HEAD CHANGE   HEAD CHANGE   HEAD CHANGE
  LAYER,ROW,COL LAYER,ROW,COL LAYER,ROW,COL LAYER,ROW,COL LAYER,ROW,COL
 ----------------------------------------------------------------------
    -0.5587        0.8577         1.002       -0.8405        -2.429    
  (  2,  3,  6) (  3,  2,  8) (  3,  1,  1) (  3, 10, 10) (  3,  1,  1)
     0.6807        0.3921        0.1313        0.6749E-01   -0.4586E-01
  (  3,  1, 10) (  3,  9,  3) (  2,  1,  7) (  2, 10,  1) (  2, 10, 10)
     0.7382E-01    0.1300E-01   -0.5800E-02   -0.3078E-02   -0.2014E-02
  (  2,  6,  1) (  2,  1,  2) (  3,  7,  2) (  3,  7,  1) (  3,  8,  1)
    -0.2019E-02   -0.1361E-02   -0.1058E-02   -0.5756E-03   -0.3695E-03
  (  2,  6,  1) (  3,  7,  2) (  3,  7,  2) (  3,  7,  1) (  3,  7,  2)
    -0.1676E-03   -0.2533E-03   -0.1997E-03   -0.1073E-03   -0.7171E-04
  (  3, 10, 10) (  3,  7,  2) (  3,  7,  2) (  3,  7,  2) (  3,  8,  2)
    -0.2839E-04   -0.4833E-04   -0.3786E-04   -0.2040E-04   -0.1267E-04
  (  3,  7,  1) (  3,  7,  2) (  3,  7,  2) (  3,  7,  2) (  3,  7,  2)
    -0.5880E-05
  (  3,  7,  1)


 OUTPUT CONTROL FOR STRESS PERIOD   27   TIME STEP    5
    SAVE HEAD FOR ALL LAYERS

 HEAD WILL BE SAVED ON UNIT   21 AT END OF TIME STEP    5, STRESS PERIOD   27
 
 SOLVING FOR HEAD 
    32 ITERATIONS FOR TIME STEP   6 IN STRESS PERIOD   27

 MAXIMUM HEAD CHANGE FOR EACH ITERATION:

    HEAD CHANGE   HEAD CHANGE   HEAD CHANGE   HEAD CHANGE   HEAD CHANGE
  LAYER,ROW,COL LAYER,ROW,COL LAYER,ROW,COL LAYER,ROW,COL LAYER,ROW,COL
 ----------------------------------------------------------------------
    -0.6534        0.5975        0.4308       -0.9242        -1.132    
  (  2,  3,  6) (  2,  3,  6) (  3,  3,  5) (  3, 10,  3) (  3,  1,  1)
     0.5302        0.3235        0.1188        0.4621E-01   -0.3143E-01
  (  3,  1, 10) (  3,  2,  2) (  2,  3,  5) (  2,  3,  5) (  2, 10, 10)
     0.3021E-01   -0.1168E-01   -0.9581E-02   -0.4799E-02   -0.2867E-02
  (  2,  7,  1) (  3,  2,  6) (  3,  3,  5) (  3,  2,  6) (  3,  3,  6)
    -0.2140E-02   -0.1911E-02   -0.1647E-02   -0.8024E-03   -0.5036E-03
  (  2,  7,  1) (  3,  2,  3) (  3,  3,  5) (  3,  3,  6) (  3,  3,  6)
    -0.3983E-03   -0.3323E-03   -0.2788E-03   -0.1424E-03   -0.8452E-04
  (  2,  9,  1) (  3,  2,  6) (  3,  3,  6) (  3,  3,  6) (  3,  3,  6)
    -0.3738E-04   -0.5725E-04   -0.4931E-04   -0.2377E-04   -0.1568E-04
  (  2,  8,  1) (  3,  3,  6) (  3,  3,  5) (  3,  3,  6) (  3,  3,  7)
    -0.1104E-04   -0.3839E-05
  (  2,  9,  1) (  3,  3,  6)


 OUTPUT CONTROL FOR STRESS PERIOD   27   TIME STEP    6
    PRINT BUDGET
    PRINT HEAD FOR ALL LAYERS
    SAVE HEAD FOR ALL LAYERS
    SAVE DRAWDOWN FOR ALL LAYERS
1
              HEAD IN LAYER   1 AT END OF TIME STEP   6 IN STRESS PERIOD   27
  ---------------------------------------------------------------------------

           1       2       3       4       5       6       7       8       9      10
 ...................................................................................
   1    19.97   19.62   18.95   18.53   18.32   18.32   18.52   18.94   19.62   19.97
   2    18.97   18.46   18.03   17.73   17.57   17.57   17.72   18.02   18.45   18.96
   3    17.53   17.03   16.66   16.41   16.28   16.28   16.40   16.65   17.02   17.52
   4    15.58   15.15   14.84   14.65   14.56   14.55   14.65   14.84   15.14   15.57
   5    12.82   12.73   12.63   12.54   12.50   12.50   12.54   12.62   12.72   12.81
   6    10.41   10.38   10.34   10.31   10.29   10.29   10.30   10.34   10.38   10.40
   7     8.11    8.09    8.06    8.02    8.00    8.00    8.02    8.05    8.08    8.10
   8     5.89    5.85    5.77    5.68    5.64    5.64    5.68    5.76    5.84    5.89
   9     3.88    3.73    3.48    3.19    3.07    3.07    3.19    3.48    3.73    3.87
  10     2.43    2.08    1.31    0.00    0.00    0.00    0.00    1.31    2.08    2.43
1
              HEAD IN LAYER   2 AT END OF TIME STEP   6 IN STRESS PERIOD   27
  ---------------------------------------------------------------------------

           1       2       3       4       5       6       7       8       9      10
 ...................................................................................
   1    -4.67   -4.66   -4.66   -4.67   -4.69   -4.71   -4.72   -4.74   -4.77   -4.79
   2    -4.74   -3.89   -4.20   -4.69   -5.18   -5.55   -5.52   -5.20   -4.83   -4.93
   3    -4.85   -4.40   -4.90   -5.72   -6.82   -7.48   -7.27   -6.68   -5.77   -5.09
   4    -4.98   -4.67   -5.07   -5.67   -6.41   -7.03   -7.01   -6.42   -5.79   -5.23
   5    -5.14   -4.86   -5.03   -5.31   -5.60   -5.82   -5.85   -5.72   -5.54   -5.37
   6    -5.30   -5.02   -5.07   -5.19   -5.30   -5.39   -5.43   -5.42   -5.40   -5.51
   7    -5.48   -5.28   -5.30   -5.36   -5.42   -5.46   -5.48   -5.48   -5.50   -5.65
   8    -5.67   -5.70   -5.75   -5.82   -5.87   -5.89   -5.88   -5.86   -5.82   -5.79
   9    -5.85   -6.24   -6.41   -6.56   -6.63   -6.64   -6.59   -6.47   -6.31   -5.94
  10    -6.03   -6.07   -6.10   -6.13   -6.15   -6.15   -6.15   -6.13   -6.10   -6.07
1
              HEAD IN LAYER   3 AT END OF TIME STEP   6 IN STRESS PERIOD   27
  ---------------------------------------------------------------------------

           1       2       3       4       5       6       7       8       9      10
 ...................................................................................
   1   -25.60  -25.77  -26.09  -26.51  -26.95  -27.30  -27.47  -27.46  -27.39  -27.33
   2   -25.61  -25.87  -26.39  -27.12  -28.00  -28.78  -28.86  -28.46  -28.05  -27.82
   3   -25.27  -25.66  -26.50  -27.90  -30.14  -33.75  -32.90  -30.20  -28.73  -28.08
   4   -24.05  -24.37  -25.02  -26.04  -27.48  -29.35  -29.09  -27.74  -26.87  -26.44
   5   -22.21  -22.38  -22.72  -23.20  -23.73  -24.19  -24.28  -24.10  -23.88  -23.75
   6   -20.28  -20.36  -20.52  -20.72  -20.94  -21.11  -21.20  -21.21  -21.19  -21.17
   7   -18.58  -18.62  -18.69  -18.78  -18.88  -18.96  -19.02  -19.06  -19.07  -19.08
   8   -17.26  -17.28  -17.32  -17.36  -17.41  -17.45  -17.49  -17.52  -17.53  -17.54
   9   -16.38  -16.39  -16.41  -16.43  -16.46  -16.48  -16.51  -16.53  -16.54  -16.54
  10   -15.93  -15.94  -15.95  -15.97  -15.99  -16.01  -16.02  -16.04  -16.05  -16.05

 HEAD WILL BE SAVED ON UNIT   21 AT END OF TIME STEP    6, STRESS PERIOD   27

 DRAWDOWN WILL BE SAVED ON UNIT   22 AT END OF TIME STEP    6, STRESS PERIOD   27
1
  VOLUMETRIC BUDGET FOR ENTIRE MODEL AT END OF TIME STEP    6, STRESS PERIOD  27
  ------------------------------------------------------------------------------

     CUMULATIVE VOLUMES      L**3       RATES FOR THIS TIME STEP      L**3/T
     ------------------                 ------------------------

           IN:                                      IN:
           ---                                      ---
             STORAGE =    40515764.0000               STORAGE =        3190.1150
       CONSTANT HEAD =      640298.5625         CONSTANT HEAD =         147.4376
               WELLS =   284963904.0000                 WELLS =       30000.0000
    INST. IB STORAGE =    58116916.0000      INST. IB STORAGE =        4991.5615
    DELAY IB STORAGE =   148015200.0000      DELAY IB STORAGE =       14974.5361

            TOTAL IN =   532252064.0000              TOTAL IN =       53303.6484

          OUT:                                     OUT:
          ----                                     ----
             STORAGE =           0.0000               STORAGE =           0.0000
       CONSTANT HEAD =   247318288.0000         CONSTANT HEAD =       23303.6973
               WELLS =   284933920.0000                 WELLS =       30000.0000
    INST. IB STORAGE =           0.0000      INST. IB STORAGE =           0.0000
    DELAY IB STORAGE =           0.0000      DELAY IB STORAGE =           0.0000

           TOTAL OUT =   532252224.0000             TOTAL OUT =       53303.6953

            IN - OUT =        -160.0000              IN - OUT =      -4.6875E-02

 PERCENT DISCREPANCY =          -0.00     PERCENT DISCREPANCY =          -0.00






         TIME SUMMARY AT END OF TIME STEP    6 IN STRESS PERIOD   27
                    SECONDS     MINUTES      HOURS       DAYS        YEARS
                    -----------------------------------------------------------
   TIME STEP LENGTH 9.18681E+06 1.53113E+05  2551.9      106.33     0.29111    
 STRESS PERIOD TIME 3.15619E+07 5.26032E+05  8767.2      365.30      1.0001    
         TOTAL TIME 8.20696E+08 1.36783E+07 2.27971E+05  9498.8      26.006    
1

                               VOLUMETRIC BUDGET FOR SYSTEMS OF DELAY INTERBEDS
                                          AT END OF TIME STEP  6 IN STRESS PERIOD 27

          |   C U M U L A T I V E   V O L U M E S   L**3           | R A T E S   F O R  T H I S  T I M E  S T E P   L**3/T  |
   SYSTEM |    CHANGE IN     BOUNDARY                    PERCENT   |    CHANGE IN     BOUNDARY                    PERCENT   |
   NUMBER |     STORAGE        FLOW           SUM      DISCREPANCY |     STORAGE        FLOW           SUM      DISCREPANCY |
  --------|--------------------------------------------------------|--------------------------------------------------------|
      1    0.10350E+06   -0.10350E+06    0.23438E-01    0.22645E-04     8.4601        -8.4601         0.0000         0.0000    
      2    0.14791E+09   -0.14791E+09     16.000        0.10817E-04     14966.        -14966.        0.48828E-02    0.32626E-04
  --------|--------------------------------------------------------|--------------------------------------------------------|
 TOTALS:    0.14802E+09   -0.14802E+09     16.000        0.10810E-04     14975.        -14975.        0.48828E-02    0.32607E-04
1
                            STRESS PERIOD NO.   28, LENGTH =   365.3000    
                            -----------------------------------------------

                              NUMBER OF TIME STEPS =     6

                               MULTIPLIER FOR DELT =     1.300

                            INITIAL TIME STEP SIZE =   28.63744    

 REUSING NON-PARAMETER WELLS FROM LAST STRESS PERIOD

     14 WELLS
 
 SOLVING FOR HEAD 

    43 ITERATIONS FOR TIME STEP   1 IN STRESS PERIOD   28

 MAXIMUM HEAD CHANGE FOR EACH ITERATION:

    HEAD CHANGE   HEAD CHANGE   HEAD CHANGE   HEAD CHANGE   HEAD CHANGE
  LAYER,ROW,COL LAYER,ROW,COL LAYER,ROW,COL LAYER,ROW,COL LAYER,ROW,COL
 ----------------------------------------------------------------------
      1.129         3.311         2.469        -1.149        -2.513    
  (  3, 10,  1) (  3,  1, 10) (  3,  2,  1) (  3,  1,  1) (  3,  2,  1)
    -0.2260       -0.5977        -1.308        -1.050        0.8201    
  (  3,  1, 10) (  3,  1,  1) (  3,  1, 10) (  3,  4,  1) (  3, 10,  1)
    -0.5494E-01   -0.9231E-02   -0.4180E-02   -0.2940E-02   -0.1475E-02
  (  2,  7,  1) (  2,  1,  2) (  3,  2,  8) (  3,  4,  5) (  3,  2,  1)
    -0.1330E-02    0.7247E-03   -0.6607E-03    0.1311E-02    0.5417E-03
  (  3,  1,  3) (  3, 10,  1) (  3,  6,  4) (  3,  8, 10) (  3,  3,  9)
     0.1344E-02    0.1136E-02    0.1672E-02    0.1670E-02    0.1259E-02
  (  3,  9,  1) (  3,  3,  9) (  3, 10,  9) (  3,  2,  1) (  3,  2,  1)
     0.8060E-03    0.8531E-03    0.5841E-03    0.4097E-03    0.3065E-03
  (  3,  1,  6) (  3,  2,  2) (  3,  3,  9) (  3,  3,  9) (  3,  3,  9)
     0.1932E-03    0.2078E-03    0.1408E-03    0.1006E-03    0.7383E-04
  (  3,  1,  1) (  3,  2,  2) (  3,  3,  9) (  3,  3,  9) (  3,  2,  1)
     0.4715E-04    0.4950E-04    0.3512E-04    0.2465E-04    0.1940E-04
  (  3,  2,  1) (  3,  2,  2) (  3,  3,  9) (  3,  3,  9) (  3,  3,  9)
     0.1167E-04    0.1014E-04    0.2299E-05
  (  3,  1,  7) (  3,  1,  9) (  3,  1,  9)


 OUTPUT CONTROL FOR STRESS PERIOD   28   TIME STEP    1
    SAVE HEAD FOR ALL LAYERS

 HEAD WILL BE SAVED ON UNIT   21 AT END OF TIME STEP    1, STRESS PERIOD   28
 
 SOLVING FOR HEAD 
    41 ITERATIONS FOR TIME STEP   2 IN STRESS PERIOD   28

 MAXIMUM HEAD CHANGE FOR EACH ITERATION:

    HEAD CHANGE   HEAD CHANGE   HEAD CHANGE   HEAD CHANGE   HEAD CHANGE
  LAYER,ROW,COL LAYER,ROW,COL LAYER,ROW,COL LAYER,ROW,COL LAYER,ROW,COL
 ----------------------------------------------------------------------
     0.9665         2.447         2.424       -0.9486        -2.709    
  (  3,  1,  5) (  3,  1,  8) (  3,  1,  1) (  3, 10, 10) (  3,  1,  1)
     0.2426       -0.4575        -1.145        0.1923       -0.3752E-01
  (  2,  3,  6) (  3,  1,  1) (  3,  1, 10) (  3, 10,  1) (  2,  1,  1)
    -0.5047E-01   -0.1187E-01   -0.2249E-02   -0.1343E-02   -0.1445E-02
  (  2,  6,  1) (  2,  1,  2) (  3,  4,  4) (  3,  1,  1) (  3,  3,  6)
     0.1204E-02    0.3217E-03    0.2023E-02    0.1089E-02    0.2373E-02
  (  3, 10,  1) (  3,  3, 10) (  3,  1, 10) (  3,  3, 10) (  3,  4,  1)
     0.1329E-02    0.2365E-02    0.1972E-02    0.1374E-02    0.1028E-02
  (  3,  3, 10) (  3,  7,  2) (  3,  3, 10) (  3,  1,  7) (  3,  1,  7)
     0.6357E-03    0.6683E-03    0.4653E-03    0.3239E-03    0.2341E-03
  (  3,  1,  7) (  3,  3,  8) (  3,  1,  7) (  3,  1,  7) (  3,  1,  7)
     0.1491E-03    0.1541E-03    0.1085E-03    0.7404E-04    0.5643E-04
  (  3,  1,  7) (  3,  3,  8) (  3,  1,  7) (  3,  1,  7) (  3,  1,  7)
     0.3506E-04    0.3607E-04    0.2577E-04    0.1780E-04    0.1301E-04
  (  3,  1,  7) (  3,  3, 10) (  3,  1,  7) (  3,  1,  7) (  3,  3,  8)
     0.8474E-05
  (  3,  1,  7)


 OUTPUT CONTROL FOR STRESS PERIOD   28   TIME STEP    2
    SAVE HEAD FOR ALL LAYERS

 HEAD WILL BE SAVED ON UNIT   21 AT END OF TIME STEP    2, STRESS PERIOD   28
 
 SOLVING FOR HEAD 
    39 ITERATIONS FOR TIME STEP   3 IN STRESS PERIOD   28

 MAXIMUM HEAD CHANGE FOR EACH ITERATION:

    HEAD CHANGE   HEAD CHANGE   HEAD CHANGE   HEAD CHANGE   HEAD CHANGE
  LAYER,ROW,COL LAYER,ROW,COL LAYER,ROW,COL LAYER,ROW,COL LAYER,ROW,COL
 ----------------------------------------------------------------------
     0.8064         2.051         1.868       -0.8283        -2.713    
  (  3,  1,  1) (  3,  1, 10) (  3,  3,  4) (  3, 10, 10) (  3,  1,  1)
     0.4622       -0.3308       -0.8916        0.4666        0.3079E-01
  (  2,  3,  6) (  3,  1,  1) (  3,  1, 10) (  3, 10,  1) (  2, 10,  9)
    -0.4079E-01   -0.1174E-01   -0.4091E-02   -0.1828E-02   -0.1195E-02
  (  2,  7,  1) (  2,  1,  2) (  3,  3,  3) (  3,  3,  2) (  3,  2,  1)
     0.1083E-02    0.1515E-02    0.1577E-02    0.2401E-02    0.2639E-02
  (  3,  1,  1) (  3, 10, 10) (  3,  1,  4) (  3, 10, 10) (  3,  1,  2)
     0.1520E-02    0.1930E-02    0.1315E-02    0.8418E-03    0.5919E-03
  (  3,  1,  1) (  3,  2,  5) (  3,  2,  5) (  3,  3,  4) (  3,  2,  8)
     0.3242E-03    0.4099E-03    0.2928E-03    0.1809E-03    0.1320E-03
  (  3,  1,  5) (  3,  2,  5) (  3,  3,  4) (  3,  2,  8) (  3,  3,  4)
     0.7009E-04    0.9034E-04    0.6167E-04    0.4022E-04    0.2836E-04
  (  3,  1,  4) (  3,  2,  8) (  3,  3,  4) (  3,  3,  4) (  3,  2,  8)
     0.1606E-04    0.1967E-04    0.1378E-04    0.9251E-05
  (  3,  2,  8) (  3,  3,  4) (  3,  2,  5) (  3,  1,  5)


 OUTPUT CONTROL FOR STRESS PERIOD   28   TIME STEP    3
    SAVE HEAD FOR ALL LAYERS

 HEAD WILL BE SAVED ON UNIT   21 AT END OF TIME STEP    3, STRESS PERIOD   28
 
 SOLVING FOR HEAD 
    35 ITERATIONS FOR TIME STEP   4 IN STRESS PERIOD   28

 MAXIMUM HEAD CHANGE FOR EACH ITERATION:

    HEAD CHANGE   HEAD CHANGE   HEAD CHANGE   HEAD CHANGE   HEAD CHANGE
  LAYER,ROW,COL LAYER,ROW,COL LAYER,ROW,COL LAYER,ROW,COL LAYER,ROW,COL
 ----------------------------------------------------------------------
     0.6779         1.339         1.456       -0.7406        -2.612    
  (  3, 10,  1) (  3,  1,  9) (  3,  1,  1) (  3, 10, 10) (  3,  1,  1)
     0.6919        0.6823E-01   -0.1819E-01   -0.1301E-01   -0.9693E-02
  (  2,  3,  6) (  2, 10,  2) (  3,  1, 10) (  3,  1,  1) (  3,  3,  7)
    -0.3710E-02   -0.5631E-02   -0.2902E-02   -0.1526E-02    0.1975E-02
  (  3,  1,  1) (  3,  2,  8) (  3,  6,  4) (  3,  2, 10) (  3,  1,  1)
     0.1522E-02    0.2832E-02    0.2403E-02    0.1534E-02    0.1068E-02
  (  3, 10,  1) (  3,  1,  1) (  3,  2,  4) (  3,  1,  1) (  3,  1,  1)
     0.5865E-03    0.7333E-03    0.5246E-03    0.3047E-03    0.2144E-03
  (  3,  1,  1) (  3,  2,  4) (  3,  1,  1) (  3,  1,  1) (  3,  1,  2)
     0.1265E-03    0.1488E-03    0.1033E-03    0.6194E-04    0.4408E-04
  (  2,  6,  1) (  3,  1,  1) (  3,  2,  5) (  3,  1,  1) (  3,  1,  1)
     0.2802E-04    0.2953E-04    0.2159E-04    0.1334E-04    0.8868E-05
  (  2,  7,  1) (  3,  1, 10) (  3,  1,  1) (  3,  1, 10) (  3,  1,  1)


 OUTPUT CONTROL FOR STRESS PERIOD   28   TIME STEP    4
    SAVE HEAD FOR ALL LAYERS

 HEAD WILL BE SAVED ON UNIT   21 AT END OF TIME STEP    4, STRESS PERIOD   28
 
 SOLVING FOR HEAD 
    31 ITERATIONS FOR TIME STEP   5 IN STRESS PERIOD   28

 MAXIMUM HEAD CHANGE FOR EACH ITERATION:

    HEAD CHANGE   HEAD CHANGE   HEAD CHANGE   HEAD CHANGE   HEAD CHANGE
  LAYER,ROW,COL LAYER,ROW,COL LAYER,ROW,COL LAYER,ROW,COL LAYER,ROW,COL
 ----------------------------------------------------------------------
     0.5389        0.9026         1.028       -0.8444        -2.438    
  (  3,  1,  5) (  3,  1,  9) (  3,  1,  1) (  3, 10, 10) (  3,  1,  1)
     0.7065        0.4121        0.1772        0.5703E-01   -0.3676E-01
  (  3,  1, 10) (  3,  9,  3) (  2,  9,  5) (  2,  9,  7) (  2, 10, 10)
     0.7885E-01    0.1367E-01   -0.6270E-02   -0.3311E-02   -0.2192E-02
  (  2,  7,  1) (  2,  1,  2) (  3,  7,  3) (  3,  7,  2) (  3,  8,  3)
    -0.2335E-02   -0.1476E-02   -0.1152E-02   -0.6242E-03   -0.3980E-03
  (  2,  6,  1) (  3,  8,  3) (  3,  7,  3) (  3,  8,  4) (  3,  7,  3)
    -0.1874E-03   -0.2779E-03   -0.2181E-03   -0.1162E-03   -0.7801E-04
  (  3, 10, 10) (  3,  8,  3) (  3,  8,  4) (  3,  7,  3) (  3,  8,  3)
    -0.2910E-04   -0.5226E-04   -0.4079E-04   -0.2273E-04   -0.1454E-04
  (  3,  8,  4) (  3,  8,  3) (  3,  7,  3) (  3,  8,  3) (  3,  7,  4)
    -0.5756E-05
  (  3,  7,  3)


 OUTPUT CONTROL FOR STRESS PERIOD   28   TIME STEP    5
    SAVE HEAD FOR ALL LAYERS

 HEAD WILL BE SAVED ON UNIT   21 AT END OF TIME STEP    5, STRESS PERIOD   28
 
 SOLVING FOR HEAD 
    32 ITERATIONS FOR TIME STEP   6 IN STRESS PERIOD   28

 MAXIMUM HEAD CHANGE FOR EACH ITERATION:

    HEAD CHANGE   HEAD CHANGE   HEAD CHANGE   HEAD CHANGE   HEAD CHANGE
  LAYER,ROW,COL LAYER,ROW,COL LAYER,ROW,COL LAYER,ROW,COL LAYER,ROW,COL
 ----------------------------------------------------------------------
    -0.7714        0.7205        0.4149       -0.9089        -1.091    
  (  2,  3,  6) (  2,  3,  6) (  3,  3,  3) (  3, 10,  2) (  3,  1,  1)
     0.5173        0.3174        0.9239E-01    0.3364E-01   -0.3078E-01
  (  3,  1, 10) (  3,  2,  2) (  2,  1,  9) (  2, 10,  1) (  2, 10, 10)
     0.3009E-01   -0.1153E-01   -0.9461E-02   -0.4747E-02   -0.2821E-02
  (  2,  7,  1) (  3,  2,  6) (  3,  3,  4) (  3,  2,  6) (  3,  2,  6)
    -0.2246E-02   -0.1886E-02   -0.1630E-02   -0.7885E-03   -0.4973E-03
  (  2,  7,  1) (  3,  3,  5) (  3,  3,  5) (  3,  3,  5) (  3,  3,  5)
    -0.3957E-03   -0.3287E-03   -0.2749E-03   -0.1397E-03   -0.8511E-04
  (  2,  9,  1) (  3,  2,  6) (  3,  3,  5) (  3,  3,  5) (  3,  3,  6)
    -0.3670E-04   -0.5558E-04   -0.4772E-04   -0.2329E-04   -0.1587E-04
  (  2,  8,  1) (  3,  3,  5) (  3,  3,  5) (  3,  3,  4) (  3,  3,  6)
    -0.1096E-04   -0.3741E-05
  (  2,  9,  1) (  3,  3,  6)


 OUTPUT CONTROL FOR STRESS PERIOD   28   TIME STEP    6
    PRINT BUDGET
    PRINT HEAD FOR ALL LAYERS
    SAVE HEAD FOR ALL LAYERS
    SAVE DRAWDOWN FOR ALL LAYERS
1
              HEAD IN LAYER   1 AT END OF TIME STEP   6 IN STRESS PERIOD   28
  ---------------------------------------------------------------------------

           1       2       3       4       5       6       7       8       9      10
 ...................................................................................
   1    19.89   19.54   18.87   18.44   18.24   18.24   18.44   18.86   19.53   19.89
   2    18.89   18.38   17.95   17.65   17.49   17.49   17.64   17.94   18.37   18.88
   3    17.45   16.95   16.58   16.33   16.20   16.20   16.32   16.57   16.94   17.44
   4    15.51   15.07   14.77   14.58   14.48   14.48   14.57   14.76   15.06   15.50
   5    12.75   12.66   12.56   12.48   12.43   12.43   12.47   12.55   12.65   12.74
   6    10.35   10.32   10.28   10.25   10.23   10.23   10.24   10.28   10.32   10.34
   7     8.06    8.04    8.00    7.97    7.95    7.95    7.97    8.00    8.03    8.05
   8     5.86    5.81    5.73    5.65    5.60    5.60    5.64    5.73    5.80    5.85
   9     3.85    3.71    3.45    3.17    3.05    3.05    3.17    3.45    3.70    3.85
  10     2.41    2.06    1.30    0.00    0.00    0.00    0.00    1.30    2.06    2.41
1
              HEAD IN LAYER   2 AT END OF TIME STEP   6 IN STRESS PERIOD   28
  ---------------------------------------------------------------------------

           1       2       3       4       5       6       7       8       9      10
 ...................................................................................
   1    -4.95   -4.95   -4.95   -4.96   -4.98   -4.99   -5.01   -5.03   -5.05   -5.08
   2    -5.02   -4.19   -4.50   -4.99   -5.49   -5.85   -5.82   -5.50   -5.14   -5.22
   3    -5.13   -4.70   -5.20   -6.01   -7.01   -7.65   -7.42   -6.97   -6.07   -5.37
   4    -5.26   -4.96   -5.36   -5.96   -6.69   -7.09   -7.05   -6.69   -6.08   -5.51
   5    -5.41   -5.14   -5.31   -5.59   -5.88   -6.10   -6.12   -6.00   -5.82   -5.65
   6    -5.58   -5.29   -5.34   -5.46   -5.58   -5.67   -5.70   -5.69   -5.68   -5.78
   7    -5.75   -5.54   -5.56   -5.62   -5.68   -5.72   -5.74   -5.75   -5.76   -5.91
   8    -5.93   -5.95   -6.01   -6.07   -6.12   -6.14   -6.14   -6.11   -6.07   -6.06
   9    -6.11   -6.48   -6.65   -6.80   -6.87   -6.88   -6.83   -6.71   -6.56   -6.20
  10    -6.29   -6.32   -6.36   -6.39   -6.40   -6.41   -6.40   -6.38   -6.36   -6.33
1
              HEAD IN LAYER   3 AT END OF TIME STEP   6 IN STRESS PERIOD   28
  ---------------------------------------------------------------------------

           1       2       3       4       5       6       7       8       9      10
 ...................................................................................
   1   -26.13  -26.30  -26.62  -27.04  -27.48  -27.83  -28.00  -28.00  -27.92  -27.86
   2   -26.14  -26.40  -26.91  -27.65  -28.52  -29.30  -29.39  -28.99  -28.58  -28.34
   3   -25.79  -26.18  -27.02  -28.42  -30.66  -34.27  -33.42  -30.72  -29.25  -28.60
   4   -24.56  -24.88  -25.53  -26.55  -27.99  -29.86  -29.60  -28.25  -27.38  -26.95
   5   -22.71  -22.88  -23.22  -23.70  -24.23  -24.69  -24.78  -24.60  -24.38  -24.25
   6   -20.76  -20.84  -21.00  -21.21  -21.42  -21.60  -21.69  -21.70  -21.68  -21.65
   7   -19.05  -19.09  -19.16  -19.26  -19.35  -19.44  -19.50  -19.53  -19.55  -19.55
   8   -17.73  -17.75  -17.78  -17.83  -17.87  -17.92  -17.96  -17.98  -18.00  -18.00
   9   -16.83  -16.84  -16.86  -16.89  -16.92  -16.94  -16.96  -16.98  -16.99  -17.00
  10   -16.39  -16.39  -16.40  -16.42  -16.44  -16.46  -16.48  -16.49  -16.50  -16.50

 HEAD WILL BE SAVED ON UNIT   21 AT END OF TIME STEP    6, STRESS PERIOD   28

 DRAWDOWN WILL BE SAVED ON UNIT   22 AT END OF TIME STEP    6, STRESS PERIOD   28
1
  VOLUMETRIC BUDGET FOR ENTIRE MODEL AT END OF TIME STEP    6, STRESS PERIOD  28
  ------------------------------------------------------------------------------

     CUMULATIVE VOLUMES      L**3       RATES FOR THIS TIME STEP      L**3/T
     ------------------                 ------------------------

           IN:                                      IN:
           ---                                      ---
             STORAGE =    41668604.0000               STORAGE =        3132.9065
       CONSTANT HEAD =      695499.1875         CONSTANT HEAD =         153.5645
               WELLS =   295922880.0000                 WELLS =       30000.0000
    INST. IB STORAGE =    59935316.0000      INST. IB STORAGE =        4968.7930
    DELAY IB STORAGE =   153462992.0000      DELAY IB STORAGE =       14872.3525

            TOTAL IN =   551685248.0000              TOTAL IN =       53127.6172

          OUT:                                     OUT:
          ----                                     ----
             STORAGE =           0.0000               STORAGE =           0.0000
       CONSTANT HEAD =   255792496.0000         CONSTANT HEAD =       23127.6836
               WELLS =   295892896.0000                 WELLS =       30000.0000
    INST. IB STORAGE =           0.0000      INST. IB STORAGE =           0.0000
    DELAY IB STORAGE =           0.0000      DELAY IB STORAGE =           0.0000

           TOTAL OUT =   551685376.0000             TOTAL OUT =       53127.6836

            IN - OUT =        -128.0000              IN - OUT =      -6.6406E-02

 PERCENT DISCREPANCY =          -0.00     PERCENT DISCREPANCY =          -0.00






         TIME SUMMARY AT END OF TIME STEP    6 IN STRESS PERIOD   28
                    SECONDS     MINUTES      HOURS       DAYS        YEARS
                    -----------------------------------------------------------
   TIME STEP LENGTH 9.18681E+06 1.53113E+05  2551.9      106.33     0.29111    
 STRESS PERIOD TIME 3.15619E+07 5.26032E+05  8767.2      365.30      1.0001    
         TOTAL TIME 8.52258E+08 1.42043E+07 2.36738E+05  9864.1      27.006    
1

                               VOLUMETRIC BUDGET FOR SYSTEMS OF DELAY INTERBEDS
                                          AT END OF TIME STEP  6 IN STRESS PERIOD 28

          |   C U M U L A T I V E   V O L U M E S   L**3           | R A T E S   F O R  T H I S  T I M E  S T E P   L**3/T  |
   SYSTEM |    CHANGE IN     BOUNDARY                    PERCENT   |    CHANGE IN     BOUNDARY                    PERCENT   |
   NUMBER |     STORAGE        FLOW           SUM      DISCREPANCY |     STORAGE        FLOW           SUM      DISCREPANCY |
  --------|--------------------------------------------------------|--------------------------------------------------------|
      1    0.10654E+06   -0.10654E+06    0.23438E-01    0.21999E-04     8.3132        -8.3132        0.19073E-05    0.22944E-04
      2    0.15336E+09   -0.15336E+09     16.000        0.10433E-04     14864.        -14864.        0.97656E-03    0.65700E-05
  --------|--------------------------------------------------------|--------------------------------------------------------|
 TOTALS:    0.15346E+09   -0.15346E+09     16.000        0.10426E-04     14872.        -14872.        0.97656E-03    0.65663E-05
1
                            STRESS PERIOD NO.   29, LENGTH =   365.3000    
                            -----------------------------------------------

                              NUMBER OF TIME STEPS =     6

                               MULTIPLIER FOR DELT =     1.300

                            INITIAL TIME STEP SIZE =   28.63744    

 REUSING NON-PARAMETER WELLS FROM LAST STRESS PERIOD

     14 WELLS
 
 SOLVING FOR HEAD 

    43 ITERATIONS FOR TIME STEP   1 IN STRESS PERIOD   29

 MAXIMUM HEAD CHANGE FOR EACH ITERATION:

    HEAD CHANGE   HEAD CHANGE   HEAD CHANGE   HEAD CHANGE   HEAD CHANGE
  LAYER,ROW,COL LAYER,ROW,COL LAYER,ROW,COL LAYER,ROW,COL LAYER,ROW,COL
 ----------------------------------------------------------------------
      1.332         2.814         2.544        -1.213        -2.498    
  (  3,  1, 10) (  3,  1,  7) (  3,  1,  1) (  3, 10, 10) (  3,  1,  1)
    -0.2211       -0.5767        -1.280        -1.022        0.7841    
  (  3,  1, 10) (  3,  1,  1) (  3,  1, 10) (  3,  4,  1) (  3, 10,  1)
     0.1422       -0.8785E-02   -0.4109E-02   -0.2885E-02   -0.1282E-02
  (  2,  9,  7) (  2,  1,  2) (  3,  2,  7) (  3,  5,  4) (  3,  2,  3)
    -0.1475E-02    0.6647E-03   -0.7142E-03    0.1317E-02    0.4992E-03
  (  3, 10,  1) (  3, 10, 10) (  3, 10,  1) (  3,  7,  1) (  3,  3,  8)
     0.1240E-02    0.1101E-02    0.1640E-02    0.1612E-02    0.1247E-02
  (  3, 10,  5) (  3,  3,  8) (  3, 10, 10) (  3,  1,  4) (  3,  3,  8)
     0.8244E-03    0.8454E-03    0.5884E-03    0.4123E-03    0.3090E-03
  (  3,  1, 10) (  3,  3,  8) (  3,  3,  8) (  3,  3,  8) (  3,  3,  8)
     0.1892E-03    0.2064E-03    0.1449E-03    0.9997E-04    0.7408E-04
  (  3,  3,  8) (  3,  3,  8) (  3,  3,  8) (  3,  3,  8) (  3,  3,  8)
     0.4774E-04    0.5078E-04    0.3501E-04    0.2515E-04    0.1881E-04
  (  3,  3,  8) (  3,  3,  8) (  3,  3,  8) (  3,  3,  8) (  3,  3,  8)
     0.1169E-04    0.1007E-04    0.2195E-05
  (  3,  3,  8) (  3,  1,  5) (  3,  1,  5)


 OUTPUT CONTROL FOR STRESS PERIOD   29   TIME STEP    1
    SAVE HEAD FOR ALL LAYERS

 HEAD WILL BE SAVED ON UNIT   21 AT END OF TIME STEP    1, STRESS PERIOD   29
 
 SOLVING FOR HEAD 
    41 ITERATIONS FOR TIME STEP   2 IN STRESS PERIOD   29

 MAXIMUM HEAD CHANGE FOR EACH ITERATION:

    HEAD CHANGE   HEAD CHANGE   HEAD CHANGE   HEAD CHANGE   HEAD CHANGE
  LAYER,ROW,COL LAYER,ROW,COL LAYER,ROW,COL LAYER,ROW,COL LAYER,ROW,COL
 ----------------------------------------------------------------------
      1.091         2.727         2.115       -0.8904        -2.570    
  (  3,  1,  1) (  3,  1, 10) (  3,  5,  4) (  3, 10, 10) (  3,  1,  1)
     0.2397       -0.4611        -1.142        0.1828        0.7882E-01
  (  2,  3,  6) (  3,  1,  1) (  3,  1, 10) (  3, 10,  1) (  2,  3,  5)
    -0.4871E-01   -0.1179E-01   -0.2237E-02   -0.1330E-02   -0.1429E-02
  (  2,  7,  1) (  2,  1,  2) (  3,  5,  2) (  3,  1,  1) (  3,  1,  5)
     0.1246E-02    0.4417E-03    0.2166E-02    0.9663E-03    0.2413E-02
  (  3, 10,  7) (  3,  8, 10) (  3,  1, 10) (  3,  8, 10) (  3,  4,  1)
     0.9730E-03    0.2424E-02    0.1935E-02    0.1366E-02    0.9871E-03
  (  3,  2,  5) (  3,  8,  4) (  3,  2,  5) (  3,  2,  5) (  3,  2,  5)
     0.6102E-03    0.6750E-03    0.4710E-03    0.3135E-03    0.2325E-03
  (  3,  1, 10) (  3,  2,  5) (  3,  2,  5) (  3,  2,  5) (  3,  2,  5)
     0.1415E-03    0.1593E-03    0.1090E-03    0.7312E-04    0.5349E-04
  (  3,  1,  1) (  3,  2,  5) (  3,  2,  5) (  3,  2,  5) (  3,  2,  5)
     0.3193E-04    0.3595E-04    0.2613E-04    0.1696E-04    0.1311E-04
  (  3,  2,  5) (  3,  2,  5) (  3,  2,  5) (  3,  2,  5) (  3,  2,  5)
     0.7629E-05
  (  3,  1,  1)


 OUTPUT CONTROL FOR STRESS PERIOD   29   TIME STEP    2
    SAVE HEAD FOR ALL LAYERS

 HEAD WILL BE SAVED ON UNIT   21 AT END OF TIME STEP    2, STRESS PERIOD   29
 
 SOLVING FOR HEAD 
    39 ITERATIONS FOR TIME STEP   3 IN STRESS PERIOD   29

 MAXIMUM HEAD CHANGE FOR EACH ITERATION:

    HEAD CHANGE   HEAD CHANGE   HEAD CHANGE   HEAD CHANGE   HEAD CHANGE
  LAYER,ROW,COL LAYER,ROW,COL LAYER,ROW,COL LAYER,ROW,COL LAYER,ROW,COL
 ----------------------------------------------------------------------
     0.8273         2.032         1.984       -0.7369        -2.618    
  (  3,  1,  5) (  3,  1, 10) (  3,  2,  1) (  3,  2, 10) (  3,  1,  1)
     0.4361       -0.3374       -0.9077        0.4439        0.4516E-01
  (  2,  3,  6) (  3,  1,  1) (  3,  1, 10) (  3, 10,  1) (  2,  9,  5)
    -0.4238E-01   -0.1250E-01   -0.4046E-02   -0.1537E-02   -0.1262E-02
  (  2,  6,  1) (  2,  1,  2) (  3,  1,  1) (  3,  8,  4) (  3,  1,  3)
     0.1106E-02    0.1339E-02    0.1667E-02    0.2182E-02    0.2647E-02
  (  3,  1,  5) (  3, 10,  7) (  3,  1,  9) (  3,  8, 10) (  3,  1,  6)
     0.1510E-02    0.1866E-02    0.1288E-02    0.8042E-03    0.5782E-03
  (  3,  1,  1) (  3,  2,  3) (  3,  4,  4) (  3,  1,  6) (  3,  1,  9)
     0.3470E-03    0.3956E-03    0.2777E-03    0.1742E-03    0.1238E-03
  (  3,  1, 10) (  3,  2,  3) (  3,  4,  4) (  3,  4,  4) (  3,  1,  6)
     0.7574E-04    0.8610E-04    0.6171E-04    0.3813E-04    0.2732E-04
  (  3, 10, 10) (  3,  2,  3) (  3,  4,  4) (  3,  1,  6) (  3, 10, 10)
     0.1647E-04    0.1832E-04    0.1358E-04    0.8432E-05
  (  3,  1,  9) (  3,  4,  4) (  3,  4,  4) (  3,  4,  4)


 OUTPUT CONTROL FOR STRESS PERIOD   29   TIME STEP    3
    SAVE HEAD FOR ALL LAYERS

 HEAD WILL BE SAVED ON UNIT   21 AT END OF TIME STEP    3, STRESS PERIOD   29
 
 SOLVING FOR HEAD 
    36 ITERATIONS FOR TIME STEP   4 IN STRESS PERIOD   29

 MAXIMUM HEAD CHANGE FOR EACH ITERATION:

    HEAD CHANGE   HEAD CHANGE   HEAD CHANGE   HEAD CHANGE   HEAD CHANGE
  LAYER,ROW,COL LAYER,ROW,COL LAYER,ROW,COL LAYER,ROW,COL LAYER,ROW,COL
 ----------------------------------------------------------------------
     0.7115         1.533         1.451       -0.7203        -2.612    
  (  3,  1,  1) (  3,  1, 10) (  3,  3,  5) (  3, 10, 10) (  3,  1,  1)
     0.7393        0.5348E-01   -0.1746E-01   -0.1277E-01   -0.9435E-02
  (  2,  3,  6) (  2, 10,  2) (  3,  1, 10) (  3,  1,  5) (  3,  3,  7)
    -0.3826E-02   -0.5446E-02   -0.2739E-02   -0.1459E-02    0.1995E-02
  (  3,  1,  1) (  3,  2,  7) (  3,  7,  4) (  3,  2,  9) (  3,  1, 10)
     0.1567E-02    0.2996E-02    0.2418E-02    0.1656E-02    0.1116E-02
  (  3, 10,  1) (  3,  1,  1) (  3,  2,  5) (  3,  1,  1) (  3,  1,  1)
     0.6642E-03    0.7400E-03    0.5693E-03    0.3167E-03    0.2394E-03
  (  3,  1,  1) (  3,  2,  4) (  3,  1,  1) (  3,  1,  1) (  3,  1,  1)
     0.1323E-03    0.1615E-03    0.1049E-03    0.7230E-04    0.4723E-04
  (  3,  1,  1) (  3,  1,  1) (  3,  2,  5) (  3,  1,  1) (  3,  1,  1)
     0.3025E-04    0.3072E-04    0.2525E-04    0.1227E-04    0.1126E-04
  (  3,  1,  1) (  3,  2,  4) (  3,  1,  1) (  3,  1,  6) (  3,  1,  1)
     0.5674E-05
  (  2,  6,  1)


 OUTPUT CONTROL FOR STRESS PERIOD   29   TIME STEP    4
    SAVE HEAD FOR ALL LAYERS

 HEAD WILL BE SAVED ON UNIT   21 AT END OF TIME STEP    4, STRESS PERIOD   29
 
 SOLVING FOR HEAD 
    31 ITERATIONS FOR TIME STEP   5 IN STRESS PERIOD   29

 MAXIMUM HEAD CHANGE FOR EACH ITERATION:

    HEAD CHANGE   HEAD CHANGE   HEAD CHANGE   HEAD CHANGE   HEAD CHANGE
  LAYER,ROW,COL LAYER,ROW,COL LAYER,ROW,COL LAYER,ROW,COL LAYER,ROW,COL
 ----------------------------------------------------------------------
    -0.7494        0.9017        0.9995       -0.8260        -2.361    
  (  2,  3,  6) (  3,  1,  9) (  3,  2,  1) (  3, 10, 10) (  3,  1,  1)
     0.6662        0.3805        0.1289        0.6893E-01   -0.3009E-01
  (  3,  1, 10) (  3,  9,  3) (  2,  1,  7) (  2, 10,  4) (  2, 10,  9)
     0.7287E-01    0.1359E-01   -0.5791E-02   -0.3073E-02   -0.2015E-02
  (  2,  6,  1) (  2,  1,  2) (  3,  7,  2) (  3,  7,  1) (  3,  7,  1)
    -0.1824E-02   -0.1358E-02   -0.1058E-02   -0.5780E-03   -0.3709E-03
  (  2,  5,  1) (  3,  7,  2) (  3,  7,  2) (  3,  7,  2) (  3,  7,  2)
    -0.1530E-03   -0.2559E-03   -0.2009E-03   -0.1072E-03   -0.7187E-04
  (  3,  7,  1) (  3,  7,  2) (  3,  7,  2) (  3,  7,  1) (  3,  7,  2)
    -0.2921E-04   -0.4739E-04   -0.3756E-04   -0.2100E-04   -0.1374E-04
  (  3,  7,  1) (  3,  7,  2) (  3,  7,  2) (  3,  7,  2) (  3,  7,  2)
    -0.6445E-05
  (  3,  7,  1)


 OUTPUT CONTROL FOR STRESS PERIOD   29   TIME STEP    5
    SAVE HEAD FOR ALL LAYERS

 HEAD WILL BE SAVED ON UNIT   21 AT END OF TIME STEP    5, STRESS PERIOD   29
 
 SOLVING FOR HEAD 
    32 ITERATIONS FOR TIME STEP   6 IN STRESS PERIOD   29

 MAXIMUM HEAD CHANGE FOR EACH ITERATION:

    HEAD CHANGE   HEAD CHANGE   HEAD CHANGE   HEAD CHANGE   HEAD CHANGE
  LAYER,ROW,COL LAYER,ROW,COL LAYER,ROW,COL LAYER,ROW,COL LAYER,ROW,COL
 ----------------------------------------------------------------------
    -0.8044        0.7342        0.4274       -0.9113        -1.152    
  (  2,  3,  6) (  2,  3,  6) (  3,  2,  1) (  3, 10,  3) (  3,  1,  1)
     0.5689        0.3530        0.1051        0.4311E-01   -0.3643E-01
  (  3,  1, 10) (  3,  2,  2) (  2,  1,  9) (  2, 10,  1) (  2, 10, 10)
     0.3517E-01   -0.1271E-01   -0.1056E-01   -0.5221E-02   -0.3143E-02
  (  2,  7,  1) (  3,  2,  6) (  3,  3,  4) (  3,  3,  6) (  3,  3,  6)
    -0.2492E-02   -0.2085E-02   -0.1795E-02   -0.8787E-03   -0.5429E-03
  (  2,  7,  1) (  3,  3,  6) (  3,  3,  5) (  3,  3,  6) (  3,  3,  6)
    -0.4111E-03   -0.3580E-03   -0.3036E-03   -0.1526E-03   -0.9236E-04
  (  2,  9,  1) (  3,  2,  6) (  3,  3,  5) (  3,  3,  6) (  3,  3,  6)
    -0.4247E-04   -0.6152E-04   -0.5270E-04   -0.2684E-04   -0.1609E-04
  (  2,  8,  1) (  3,  3,  6) (  3,  3,  5) (  3,  3,  6) (  3,  3,  7)
    -0.1225E-04   -0.4314E-05
  (  2,  9,  1) (  3,  3,  3)


 OUTPUT CONTROL FOR STRESS PERIOD   29   TIME STEP    6
    PRINT BUDGET
    PRINT HEAD FOR ALL LAYERS
    SAVE HEAD FOR ALL LAYERS
    SAVE DRAWDOWN FOR ALL LAYERS
1
              HEAD IN LAYER   1 AT END OF TIME STEP   6 IN STRESS PERIOD   29
  ---------------------------------------------------------------------------

           1       2       3       4       5       6       7       8       9      10
 ...................................................................................
   1    19.82   19.46   18.79   18.36   18.16   18.16   18.36   18.78   19.46   19.81
   2    18.81   18.30   17.87   17.57   17.41   17.41   17.56   17.86   18.29   18.80
   3    17.38   16.88   16.51   16.26   16.13   16.13   16.25   16.50   16.87   17.37
   4    15.44   15.00   14.70   14.51   14.41   14.41   14.50   14.69   14.99   15.43
   5    12.68   12.60   12.49   12.41   12.36   12.36   12.41   12.49   12.59   12.68
   6    10.29   10.26   10.22   10.19   10.17   10.17   10.19   10.22   10.26   10.28
   7     8.01    7.99    7.96    7.92    7.90    7.90    7.92    7.95    7.98    8.00
   8     5.82    5.77    5.69    5.61    5.56    5.56    5.61    5.69    5.77    5.81
   9     3.82    3.68    3.43    3.15    3.03    3.03    3.15    3.43    3.68    3.82
  10     2.39    2.05    1.29    0.00    0.00    0.00    0.00    1.29    2.05    2.39
1
              HEAD IN LAYER   2 AT END OF TIME STEP   6 IN STRESS PERIOD   29
  ---------------------------------------------------------------------------

           1       2       3       4       5       6       7       8       9      10
 ...................................................................................
   1    -5.24   -5.23   -5.24   -5.25   -5.26   -5.28   -5.30   -5.32   -5.34   -5.36
   2    -5.30   -4.48   -4.80   -5.29   -5.78   -6.14   -6.11   -5.79   -5.43   -5.50
   3    -5.41   -4.99   -5.50   -6.29   -7.06   -7.85   -7.58   -7.03   -6.34   -5.65
   4    -5.54   -5.24   -5.65   -6.25   -6.96   -7.19   -7.14   -6.96   -6.36   -5.79
   5    -5.68   -5.42   -5.59   -5.87   -6.16   -6.37   -6.40   -6.28   -6.10   -5.92
   6    -5.84   -5.56   -5.61   -5.73   -5.85   -5.94   -5.97   -5.96   -5.95   -6.05
   7    -6.01   -5.80   -5.82   -5.88   -5.94   -5.98   -6.01   -6.01   -6.02   -6.18
   8    -6.19   -6.20   -6.26   -6.32   -6.37   -6.39   -6.39   -6.36   -6.33   -6.32
   9    -6.37   -6.72   -6.89   -7.00   -7.01   -7.01   -7.00   -6.95   -6.80   -6.46
  10    -6.54   -6.58   -6.61   -6.64   -6.65   -6.66   -6.65   -6.64   -6.61   -6.59
1
              HEAD IN LAYER   3 AT END OF TIME STEP   6 IN STRESS PERIOD   29
  ---------------------------------------------------------------------------

           1       2       3       4       5       6       7       8       9      10
 ...................................................................................
   1   -26.65  -26.82  -27.14  -27.56  -28.00  -28.36  -28.52  -28.52  -28.45  -28.39
   2   -26.66  -26.92  -27.43  -28.17  -29.04  -29.82  -29.91  -29.51  -29.10  -28.86
   3   -26.31  -26.70  -27.53  -28.93  -31.17  -34.79  -33.94  -31.24  -29.77  -29.11
   4   -25.07  -25.38  -26.03  -27.06  -28.49  -30.37  -30.10  -28.76  -27.88  -27.45
   5   -23.20  -23.38  -23.72  -24.19  -24.73  -25.18  -25.27  -25.09  -24.88  -24.74
   6   -21.24  -21.33  -21.48  -21.69  -21.91  -22.08  -22.17  -22.18  -22.16  -22.14
   7   -19.53  -19.56  -19.64  -19.73  -19.83  -19.91  -19.97  -20.00  -20.02  -20.02
   8   -18.19  -18.21  -18.24  -18.29  -18.34  -18.38  -18.42  -18.45  -18.46  -18.47
   9   -17.29  -17.30  -17.32  -17.34  -17.37  -17.40  -17.42  -17.44  -17.45  -17.46
  10   -16.84  -16.85  -16.86  -16.87  -16.89  -16.91  -16.93  -16.94  -16.95  -16.96

 HEAD WILL BE SAVED ON UNIT   21 AT END OF TIME STEP    6, STRESS PERIOD   29

 DRAWDOWN WILL BE SAVED ON UNIT   22 AT END OF TIME STEP    6, STRESS PERIOD   29
1
  VOLUMETRIC BUDGET FOR ENTIRE MODEL AT END OF TIME STEP    6, STRESS PERIOD  29
  ------------------------------------------------------------------------------

     CUMULATIVE VOLUMES      L**3       RATES FOR THIS TIME STEP      L**3/T
     ------------------                 ------------------------

           IN:                                      IN:
           ---                                      ---
             STORAGE =    42800328.0000               STORAGE =        3074.2559
       CONSTANT HEAD =      752929.5000         CONSTANT HEAD =         159.6461
               WELLS =   306881856.0000                 WELLS =       30000.0000
    INST. IB STORAGE =    61746204.0000      INST. IB STORAGE =        4950.8486
    DELAY IB STORAGE =   158873536.0000      DELAY IB STORAGE =       14770.1895

            TOTAL IN =   571054848.0000              TOTAL IN =       52954.9375

          OUT:                                     OUT:
          ----                                     ----
             STORAGE =           0.0000               STORAGE =           0.0000
       CONSTANT HEAD =   264203104.0000         CONSTANT HEAD =       22955.0254
               WELLS =   306851872.0000                 WELLS =       30000.0000
    INST. IB STORAGE =           0.0000      INST. IB STORAGE =           0.0000
    DELAY IB STORAGE =           0.0000      DELAY IB STORAGE =           0.0000

           TOTAL OUT =   571054976.0000             TOTAL OUT =       52955.0234

            IN - OUT =        -128.0000              IN - OUT =      -8.5938E-02

 PERCENT DISCREPANCY =          -0.00     PERCENT DISCREPANCY =          -0.00






         TIME SUMMARY AT END OF TIME STEP    6 IN STRESS PERIOD   29
                    SECONDS     MINUTES      HOURS       DAYS        YEARS
                    -----------------------------------------------------------
   TIME STEP LENGTH 9.18681E+06 1.53113E+05  2551.9      106.33     0.29111    
 STRESS PERIOD TIME 3.15619E+07 5.26032E+05  8767.2      365.30      1.0001    
         TOTAL TIME 8.83820E+08 1.47303E+07 2.45506E+05  10229.      28.007    
1

                               VOLUMETRIC BUDGET FOR SYSTEMS OF DELAY INTERBEDS
                                          AT END OF TIME STEP  6 IN STRESS PERIOD 29

          |   C U M U L A T I V E   V O L U M E S   L**3           | R A T E S   F O R  T H I S  T I M E  S T E P   L**3/T  |
   SYSTEM |    CHANGE IN     BOUNDARY                    PERCENT   |    CHANGE IN     BOUNDARY                    PERCENT   |
   NUMBER |     STORAGE        FLOW           SUM      DISCREPANCY |     STORAGE        FLOW           SUM      DISCREPANCY |
  --------|--------------------------------------------------------|--------------------------------------------------------|
      1    0.10953E+06   -0.10953E+06    0.23438E-01    0.21399E-04     8.1941        -8.1941        0.95367E-06    0.11638E-04
      2    0.15876E+09   -0.15876E+09     16.000        0.10078E-04     14762.        -14762.       -0.29297E-02   -0.19846E-04
  --------|--------------------------------------------------------|--------------------------------------------------------|
 TOTALS:    0.15887E+09   -0.15887E+09     16.000        0.10071E-04     14770.        -14770.       -0.29297E-02   -0.19835E-04
1
                            STRESS PERIOD NO.   30, LENGTH =   365.3000    
                            -----------------------------------------------

                              NUMBER OF TIME STEPS =     6

                               MULTIPLIER FOR DELT =     1.300

                            INITIAL TIME STEP SIZE =   28.63744    

 REUSING NON-PARAMETER WELLS FROM LAST STRESS PERIOD

     14 WELLS
 
 SOLVING FOR HEAD 

    42 ITERATIONS FOR TIME STEP   1 IN STRESS PERIOD   30

 MAXIMUM HEAD CHANGE FOR EACH ITERATION:

    HEAD CHANGE   HEAD CHANGE   HEAD CHANGE   HEAD CHANGE   HEAD CHANGE
  LAYER,ROW,COL LAYER,ROW,COL LAYER,ROW,COL LAYER,ROW,COL LAYER,ROW,COL
 ----------------------------------------------------------------------
      1.367         2.785         2.419        -1.118        -2.479    
  (  3,  1,  6) (  3,  1,  9) (  3,  3,  4) (  3, 10, 10) (  3,  1,  1)
    -0.2136       -0.5558        -1.258        -1.042        0.8298    
  (  3,  1, 10) (  3,  1,  1) (  3,  1, 10) (  3,  4,  1) (  3, 10,  1)
     0.8680E-01    0.1656E-01   -0.4023E-02   -0.3009E-02   -0.1216E-02
  (  2,  9,  3) (  2,  4,  5) (  3,  2,  8) (  3,  4,  6) (  3,  2,  1)
    -0.1383E-02    0.7219E-03   -0.7896E-03    0.1533E-02    0.5374E-03
  (  3,  4,  6) (  3, 10,  7) (  3,  5,  7) (  3,  9,  6) (  3,  5,  2)
     0.1403E-02    0.1069E-02    0.1337E-02    0.1593E-02    0.1246E-02
  (  3, 10, 10) (  3,  5,  2) (  3, 10,  7) (  3,  1,  6) (  3,  3,  9)
     0.8130E-03    0.8328E-03    0.5748E-03    0.4088E-03    0.3029E-03
  (  3,  1, 10) (  3,  3,  9) (  3,  3,  9) (  3,  3,  9) (  3,  3,  9)
     0.1956E-03    0.2016E-03    0.1422E-03    0.9868E-04    0.7532E-04
  (  3,  1,  1) (  3,  3,  9) (  3,  3,  9) (  3,  4,  4) (  3,  3,  9)
     0.4608E-04    0.5040E-04    0.3530E-04    0.2451E-04    0.1825E-04
  (  3,  3,  9) (  3,  3,  9) (  3,  4,  4) (  3,  3,  9) (  3,  5,  3)
     0.1191E-04    0.9572E-05
  (  3,  1,  6) (  3,  1, 10)


 OUTPUT CONTROL FOR STRESS PERIOD   30   TIME STEP    1
    SAVE HEAD FOR ALL LAYERS

 HEAD WILL BE SAVED ON UNIT   21 AT END OF TIME STEP    1, STRESS PERIOD   30
 
 SOLVING FOR HEAD 
    41 ITERATIONS FOR TIME STEP   2 IN STRESS PERIOD   30

 MAXIMUM HEAD CHANGE FOR EACH ITERATION:

    HEAD CHANGE   HEAD CHANGE   HEAD CHANGE   HEAD CHANGE   HEAD CHANGE
  LAYER,ROW,COL LAYER,ROW,COL LAYER,ROW,COL LAYER,ROW,COL LAYER,ROW,COL
 ----------------------------------------------------------------------
      1.378         2.235         2.130        -1.020        -2.616    
  (  3, 10, 10) (  3,  2, 10) (  3,  2,  3) (  3, 10, 10) (  3,  1,  1)
     0.2756       -0.4513        -1.129        0.1811       -0.3958E-01
  (  2,  3,  6) (  3,  1,  1) (  3,  1, 10) (  3, 10,  1) (  2,  1,  1)
    -0.4776E-01   -0.1122E-01   -0.2211E-02   -0.1254E-02   -0.1352E-02
  (  2,  7,  1) (  2,  1,  2) (  3,  5,  3) (  3,  1,  4) (  3,  1,  6)
     0.1106E-02    0.4098E-03    0.2168E-02    0.1144E-02    0.2364E-02
  (  3,  6,  1) (  3,  4,  1) (  3,  6,  1) (  3,  1, 10) (  3,  4,  1)
     0.1384E-02    0.2301E-02    0.1909E-02    0.1443E-02    0.1030E-02
  (  3,  1, 10) (  3,  3,  2) (  3,  3,  1) (  3,  1, 10) (  3,  6, 10)
     0.7113E-03    0.6811E-03    0.4889E-03    0.3310E-03    0.2543E-03
  (  3,  1, 10) (  3,  6, 10) (  3,  6, 10) (  3,  6, 10) (  3,  6, 10)
     0.1553E-03    0.1629E-03    0.1134E-03    0.8212E-04    0.5855E-04
  (  3,  6, 10) (  3,  6, 10) (  3,  6, 10) (  3,  6, 10) (  3,  6, 10)
     0.3953E-04    0.3873E-04    0.2813E-04    0.1884E-04    0.1573E-04
  (  3,  6, 10) (  3,  6, 10) (  3,  6, 10) (  3,  6, 10) (  3,  6, 10)
     0.9445E-05
  (  3,  1, 10)


 OUTPUT CONTROL FOR STRESS PERIOD   30   TIME STEP    2
    SAVE HEAD FOR ALL LAYERS

 HEAD WILL BE SAVED ON UNIT   21 AT END OF TIME STEP    2, STRESS PERIOD   30
 
 SOLVING FOR HEAD 
    39 ITERATIONS FOR TIME STEP   3 IN STRESS PERIOD   30

 MAXIMUM HEAD CHANGE FOR EACH ITERATION:

    HEAD CHANGE   HEAD CHANGE   HEAD CHANGE   HEAD CHANGE   HEAD CHANGE
  LAYER,ROW,COL LAYER,ROW,COL LAYER,ROW,COL LAYER,ROW,COL LAYER,ROW,COL
 ----------------------------------------------------------------------
     0.7658         2.077         2.053       -0.7676        -2.703    
  (  3,  1,  3) (  3,  1, 10) (  3,  1,  1) (  3, 10, 10) (  3,  1,  1)
     0.5112       -0.3349       -0.9008        0.4413        0.3558E-01
  (  2,  3,  6) (  3,  1,  1) (  3,  1, 10) (  3, 10,  1) (  2, 10,  9)
    -0.4147E-01   -0.1232E-01   -0.4030E-02   -0.1828E-02   -0.1319E-02
  (  2,  6,  1) (  2,  1,  2) (  3,  3,  7) (  3,  7, 10) (  3,  2,  7)
     0.1454E-02    0.1364E-02    0.1670E-02    0.2233E-02    0.2707E-02
  (  3,  1,  1) (  3, 10, 10) (  3,  1, 10) (  3, 10,  8) (  3,  1,  1)
     0.1583E-02    0.1887E-02    0.1308E-02    0.8240E-03    0.5781E-03
  (  3,  1,  1) (  3,  2,  2) (  3,  3,  6) (  3,  3,  6) (  3,  3,  6)
     0.3585E-03    0.4026E-03    0.2870E-03    0.1764E-03    0.1279E-03
  (  3,  1, 10) (  3,  3,  6) (  3,  3,  6) (  3,  4,  5) (  3,  3,  6)
     0.7286E-04    0.8985E-04    0.6196E-04    0.3883E-04    0.2777E-04
  (  3,  1,  1) (  3,  3,  6) (  3,  3,  6) (  3,  1,  2) (  3,  3,  6)
     0.1795E-04    0.1994E-04    0.1338E-04    0.8654E-05
  (  3,  1, 10) (  3,  3,  6) (  3,  1, 10) (  3,  1,  4)


 OUTPUT CONTROL FOR STRESS PERIOD   30   TIME STEP    3
    SAVE HEAD FOR ALL LAYERS

 HEAD WILL BE SAVED ON UNIT   21 AT END OF TIME STEP    3, STRESS PERIOD   30
 
 SOLVING FOR HEAD 
    35 ITERATIONS FOR TIME STEP   4 IN STRESS PERIOD   30

 MAXIMUM HEAD CHANGE FOR EACH ITERATION:

    HEAD CHANGE   HEAD CHANGE   HEAD CHANGE   HEAD CHANGE   HEAD CHANGE
  LAYER,ROW,COL LAYER,ROW,COL LAYER,ROW,COL LAYER,ROW,COL LAYER,ROW,COL
 ----------------------------------------------------------------------
     0.8601         1.185         1.393       -0.7207        -2.545    
  (  3,  1, 10) (  3,  2,  8) (  3,  3,  5) (  3, 10, 10) (  3,  1,  1)
     0.5175        0.5700E-01   -0.1582E-01   -0.1262E-01   -0.9449E-02
  (  2,  4,  7) (  2, 10,  2) (  3,  2,  1) (  3,  1,  7) (  3,  4,  1)
    -0.3887E-02   -0.5669E-02   -0.2986E-02   -0.1408E-02    0.1667E-02
  (  3,  1, 10) (  3,  2,  7) (  3,  6,  2) (  3,  2,  8) (  3,  1, 10)
     0.1351E-02    0.2871E-02    0.2370E-02    0.1534E-02    0.1075E-02
  (  3, 10,  1) (  3,  1,  1) (  3,  1, 10) (  3,  1,  1) (  3,  1,  1)
     0.6040E-03    0.7212E-03    0.5267E-03    0.3099E-03    0.2180E-03
  (  3,  1,  1) (  3,  1, 10) (  3,  1,  1) (  3,  1, 10) (  3,  1,  1)
     0.1287E-03    0.1508E-03    0.1035E-03    0.6525E-04    0.4506E-04
  (  2,  6,  1) (  3,  1,  1) (  3,  1, 10) (  3,  1,  1) (  3,  1,  1)
     0.2685E-04    0.2971E-04    0.2325E-04    0.1300E-04    0.8758E-05
  (  3,  1,  1) (  3,  1,  9) (  3,  1,  1) (  3,  1,  6) (  3,  1,  1)


 OUTPUT CONTROL FOR STRESS PERIOD   30   TIME STEP    4
    SAVE HEAD FOR ALL LAYERS

 HEAD WILL BE SAVED ON UNIT   21 AT END OF TIME STEP    4, STRESS PERIOD   30
 
 SOLVING FOR HEAD 
    31 ITERATIONS FOR TIME STEP   5 IN STRESS PERIOD   30

 MAXIMUM HEAD CHANGE FOR EACH ITERATION:

    HEAD CHANGE   HEAD CHANGE   HEAD CHANGE   HEAD CHANGE   HEAD CHANGE
  LAYER,ROW,COL LAYER,ROW,COL LAYER,ROW,COL LAYER,ROW,COL LAYER,ROW,COL
 ----------------------------------------------------------------------
    -0.7548        0.8627         1.021       -0.8251        -2.370    
  (  2,  3,  6) (  3,  1,  9) (  3,  1,  1) (  3, 10, 10) (  3,  1,  1)
     0.6763        0.3836        0.1269        0.1313       -0.6323E-01
  (  3,  1, 10) (  3,  9,  3) (  2,  1,  9) (  2, 10,  3) (  2, 10, 10)
     0.9519E-01    0.1599E-01   -0.5588E-02   -0.2951E-02   -0.2313E-02
  (  2,  7,  1) (  2,  1,  2) (  3,  7,  3) (  3,  6,  1) (  2, 10,  3)
    -0.2159E-02   -0.1308E-02   -0.1017E-02   -0.5517E-03   -0.3527E-03
  (  2,  6,  1) (  3,  7,  2) (  3,  7,  3) (  2, 10,  3) (  3,  6,  2)
    -0.1545E-03   -0.2445E-03   -0.1917E-03   -0.1021E-03   -0.6917E-04
  (  3, 10, 10) (  3,  8,  2) (  3,  7,  3) (  3,  6,  2) (  3,  8,  3)
    -0.2864E-04   -0.4634E-04   -0.3556E-04   -0.2051E-04   -0.1242E-04
  (  3,  6,  1) (  3,  7,  3) (  3,  8,  2) (  3,  8,  5) (  3,  6,  2)
    -0.5859E-05
  (  3,  8,  1)


 OUTPUT CONTROL FOR STRESS PERIOD   30   TIME STEP    5
    SAVE HEAD FOR ALL LAYERS

 HEAD WILL BE SAVED ON UNIT   21 AT END OF TIME STEP    5, STRESS PERIOD   30
 
 SOLVING FOR HEAD 
    32 ITERATIONS FOR TIME STEP   6 IN STRESS PERIOD   30

 MAXIMUM HEAD CHANGE FOR EACH ITERATION:

    HEAD CHANGE   HEAD CHANGE   HEAD CHANGE   HEAD CHANGE   HEAD CHANGE
  LAYER,ROW,COL LAYER,ROW,COL LAYER,ROW,COL LAYER,ROW,COL LAYER,ROW,COL
 ----------------------------------------------------------------------
    -0.9233        0.8641        0.4173       -0.9096        -1.157    
  (  2,  3,  6) (  2,  3,  6) (  3,  2,  1) (  3, 10, 10) (  3,  1,  1)
     0.5703        0.3564        0.1077        0.4966E-01   -0.3733E-01
  (  3,  1, 10) (  3,  2,  2) (  2,  1,  9) (  2, 10,  2) (  2, 10, 10)
     0.3625E-01   -0.1287E-01   -0.1074E-01   -0.5324E-02   -0.3166E-02
  (  2,  7,  1) (  3,  2,  6) (  3,  3,  4) (  3,  3,  5) (  3,  3,  5)
    -0.2402E-02   -0.2111E-02   -0.1826E-02   -0.8836E-03   -0.5507E-03
  (  2,  7,  1) (  3,  3,  4) (  3,  3,  5) (  3,  3,  5) (  3,  3,  5)
    -0.3701E-03   -0.3605E-03   -0.3057E-03   -0.1535E-03   -0.9160E-04
  (  2,  9,  1) (  3,  2,  6) (  3,  3,  5) (  3,  3,  6) (  3,  3,  5)
    -0.3746E-04   -0.6116E-04   -0.5300E-04   -0.2587E-04   -0.1766E-04
  (  2,  8,  1) (  3,  3,  6) (  3,  3,  4) (  3,  4,  3) (  3,  3,  7)
    -0.1068E-04   -0.4517E-05
  (  2,  9,  1) (  3,  3,  6)


 OUTPUT CONTROL FOR STRESS PERIOD   30   TIME STEP    6
    PRINT BUDGET
    PRINT HEAD FOR ALL LAYERS
    SAVE HEAD FOR ALL LAYERS
    SAVE DRAWDOWN FOR ALL LAYERS
1
              HEAD IN LAYER   1 AT END OF TIME STEP   6 IN STRESS PERIOD   30
  ---------------------------------------------------------------------------

           1       2       3       4       5       6       7       8       9      10
 ...................................................................................
   1    19.74   19.38   18.71   18.29   18.08   18.08   18.28   18.71   19.38   19.73
   2    18.73   18.22   17.79   17.49   17.34   17.34   17.49   17.79   18.21   18.72
   3    17.30   16.80   16.43   16.18   16.05   16.05   16.17   16.42   16.79   17.29
   4    15.37   14.93   14.63   14.44   14.34   14.34   14.43   14.62   14.92   15.36
   5    12.62   12.53   12.43   12.34   12.30   12.30   12.34   12.42   12.52   12.61
   6    10.23   10.21   10.17   10.13   10.11   10.11   10.13   10.16   10.20   10.23
   7     7.96    7.94    7.91    7.87    7.85    7.85    7.87    7.90    7.94    7.96
   8     5.78    5.73    5.65    5.57    5.53    5.52    5.57    5.65    5.73    5.77
   9     3.79    3.65    3.41    3.13    3.01    3.01    3.13    3.40    3.65    3.79
  10     2.38    2.03    1.28    0.00    0.00    0.00    0.00    1.28    2.03    2.38
1
              HEAD IN LAYER   2 AT END OF TIME STEP   6 IN STRESS PERIOD   30
  ---------------------------------------------------------------------------

           1       2       3       4       5       6       7       8       9      10
 ...................................................................................
   1    -5.52   -5.51   -5.52   -5.53   -5.54   -5.56   -5.58   -5.60   -5.62   -5.64
   2    -5.58   -4.78   -5.09   -5.58   -6.07   -6.44   -6.41   -6.09   -5.72   -5.78
   3    -5.68   -5.28   -5.79   -6.56   -7.14   -8.05   -7.77   -7.09   -6.62   -5.92
   4    -5.81   -5.53   -5.94   -6.52   -7.02   -7.32   -7.25   -7.02   -6.63   -6.06
   5    -5.95   -5.70   -5.87   -6.15   -6.43   -6.65   -6.68   -6.55   -6.38   -6.19
   6    -6.11   -5.83   -5.88   -6.00   -6.12   -6.21   -6.24   -6.23   -6.22   -6.31
   7    -6.28   -6.06   -6.08   -6.14   -6.20   -6.24   -6.26   -6.27   -6.28   -6.44
   8    -6.45   -6.45   -6.50   -6.56   -6.61   -6.63   -6.63   -6.61   -6.58   -6.58
   9    -6.63   -6.96   -7.01   -7.03   -7.05   -7.05   -7.04   -7.02   -7.00   -6.71
  10    -6.79   -6.83   -6.86   -6.89   -6.90   -6.91   -6.90   -6.89   -6.87   -6.84
1
              HEAD IN LAYER   3 AT END OF TIME STEP   6 IN STRESS PERIOD   30
  ---------------------------------------------------------------------------

           1       2       3       4       5       6       7       8       9      10
 ...................................................................................
   1   -27.17  -27.34  -27.66  -28.08  -28.52  -28.87  -29.04  -29.04  -28.96  -28.91
   2   -27.17  -27.43  -27.95  -28.68  -29.56  -30.34  -30.42  -30.02  -29.61  -29.38
   3   -26.81  -27.20  -28.04  -29.44  -31.68  -35.29  -34.44  -31.74  -30.28  -29.62
   4   -25.56  -25.88  -26.53  -27.56  -28.99  -30.86  -30.60  -29.26  -28.38  -27.95
   5   -23.69  -23.87  -24.21  -24.68  -25.22  -25.67  -25.76  -25.58  -25.37  -25.24
   6   -21.72  -21.81  -21.96  -22.17  -22.39  -22.56  -22.65  -22.66  -22.64  -22.62
   7   -20.00  -20.03  -20.11  -20.20  -20.30  -20.38  -20.44  -20.47  -20.49  -20.49
   8   -18.65  -18.67  -18.70  -18.75  -18.80  -18.84  -18.88  -18.91  -18.92  -18.93
   9   -17.75  -17.76  -17.77  -17.80  -17.83  -17.85  -17.88  -17.89  -17.91  -17.91
  10   -17.29  -17.30  -17.31  -17.33  -17.35  -17.36  -17.38  -17.39  -17.40  -17.41

 HEAD WILL BE SAVED ON UNIT   21 AT END OF TIME STEP    6, STRESS PERIOD   30

 DRAWDOWN WILL BE SAVED ON UNIT   22 AT END OF TIME STEP    6, STRESS PERIOD   30
1
  VOLUMETRIC BUDGET FOR ENTIRE MODEL AT END OF TIME STEP    6, STRESS PERIOD  30
  ------------------------------------------------------------------------------

     CUMULATIVE VOLUMES      L**3       RATES FOR THIS TIME STEP      L**3/T
     ------------------                 ------------------------

           IN:                                      IN:
           ---                                      ---
             STORAGE =    43909964.0000               STORAGE =        3012.9822
       CONSTANT HEAD =      812563.3125         CONSTANT HEAD =         165.6438
               WELLS =   317840832.0000                 WELLS =       30000.0000
    INST. IB STORAGE =    63553296.0000      INST. IB STORAGE =        4944.3359
    DELAY IB STORAGE =   164245808.0000      DELAY IB STORAGE =       14664.4004

            TOTAL IN =   590362432.0000              TOTAL IN =       52787.3594

          OUT:                                     OUT:
          ----                                     ----
             STORAGE =           0.0000               STORAGE =           0.0000
       CONSTANT HEAD =   272551776.0000         CONSTANT HEAD =       22787.4336
               WELLS =   317810848.0000                 WELLS =       30000.0000
    INST. IB STORAGE =           0.0000      INST. IB STORAGE =           0.0000
    DELAY IB STORAGE =           0.0000      DELAY IB STORAGE =           0.0000

           TOTAL OUT =   590362624.0000             TOTAL OUT =       52787.4336

            IN - OUT =        -192.0000              IN - OUT =      -7.4219E-02

 PERCENT DISCREPANCY =          -0.00     PERCENT DISCREPANCY =          -0.00






         TIME SUMMARY AT END OF TIME STEP    6 IN STRESS PERIOD   30
                    SECONDS     MINUTES      HOURS       DAYS        YEARS
                    -----------------------------------------------------------
   TIME STEP LENGTH 9.18681E+06 1.53113E+05  2551.9      106.33     0.29111    
 STRESS PERIOD TIME 3.15619E+07 5.26032E+05  8767.2      365.30      1.0001    
         TOTAL TIME 9.15382E+08 1.52564E+07 2.54273E+05  10595.      29.007    
1

                               VOLUMETRIC BUDGET FOR SYSTEMS OF DELAY INTERBEDS
                                          AT END OF TIME STEP  6 IN STRESS PERIOD 30

          |   C U M U L A T I V E   V O L U M E S   L**3           | R A T E S   F O R  T H I S  T I M E  S T E P   L**3/T  |
   SYSTEM |    CHANGE IN     BOUNDARY                    PERCENT   |    CHANGE IN     BOUNDARY                    PERCENT   |
   NUMBER |     STORAGE        FLOW           SUM      DISCREPANCY |     STORAGE        FLOW           SUM      DISCREPANCY |
  --------|--------------------------------------------------------|--------------------------------------------------------|
      1    0.11245E+06   -0.11245E+06    0.23438E-01    0.20842E-04     8.0167        -8.0167       -0.95367E-06   -0.11896E-04
      2    0.16413E+09   -0.16413E+09     16.000        0.97482E-05     14656.        -14656.       -0.97656E-03   -0.66631E-05
  --------|--------------------------------------------------------|--------------------------------------------------------|
 TOTALS:    0.16425E+09   -0.16425E+09     16.000        0.97415E-05     14664.        -14664.       -0.97656E-03   -0.66594E-05
1
                            STRESS PERIOD NO.   31, LENGTH =   365.3000    
                            -----------------------------------------------

                              NUMBER OF TIME STEPS =     6

                               MULTIPLIER FOR DELT =     1.300

                            INITIAL TIME STEP SIZE =   28.63744    

 REUSING NON-PARAMETER WELLS FROM LAST STRESS PERIOD

     14 WELLS
 
 SOLVING FOR HEAD 

    43 ITERATIONS FOR TIME STEP   1 IN STRESS PERIOD   31

 MAXIMUM HEAD CHANGE FOR EACH ITERATION:

    HEAD CHANGE   HEAD CHANGE   HEAD CHANGE   HEAD CHANGE   HEAD CHANGE
  LAYER,ROW,COL LAYER,ROW,COL LAYER,ROW,COL LAYER,ROW,COL LAYER,ROW,COL
 ----------------------------------------------------------------------
      1.389         2.913         2.310        -1.157        -2.445    
  (  3, 10,  2) (  3,  1,  9) (  3, 10, 10) (  3, 10, 10) (  3,  1,  1)
    -0.1998       -0.5463        -1.235        -1.017        0.8157    
  (  3,  1, 10) (  3,  1,  1) (  3,  1, 10) (  3,  4,  1) (  3, 10,  1)
    -0.8278E-01    0.4096E-01    0.3232E-01   -0.7350E-02    0.7762E-02
  (  2,  8,  1) (  2, 10,  7) (  2, 10,  1) (  2, 10,  1) (  2, 10,  1)
     0.1233E-01    0.3901E-02   -0.6091E-03    0.1418E-02    0.5962E-03
  (  2,  6,  1) (  2, 10,  2) (  3,  7,  1) (  3, 10, 10) (  3,  1,  1)
     0.1161E-02    0.1216E-02    0.1116E-02    0.1521E-02    0.1303E-02
  (  3, 10, 10) (  3, 10,  7) (  3, 10, 10) (  3,  1,  4) (  3,  1,  1)
     0.8978E-03    0.8863E-03    0.5870E-03    0.4487E-03    0.3265E-03
  (  3,  1,  1) (  3,  1,  1) (  3,  2,  5) (  3,  1,  1) (  3,  1,  1)
     0.2344E-03    0.2085E-03    0.1538E-03    0.1055E-03    0.8214E-04
  (  3,  1,  1) (  3,  2,  5) (  3,  1,  1) (  3,  1,  1) (  3,  1,  1)
     0.5614E-04    0.5416E-04    0.3472E-04    0.2749E-04    0.2017E-04
  (  3,  1,  1) (  3,  1,  1) (  3,  2,  5) (  3,  1,  1) (  3,  1,  1)
     0.1512E-04    0.1022E-04    0.5712E-05
  (  3,  1,  1) (  3,  1,  1) (  3,  1,  1)


 OUTPUT CONTROL FOR STRESS PERIOD   31   TIME STEP    1
    SAVE HEAD FOR ALL LAYERS

 HEAD WILL BE SAVED ON UNIT   21 AT END OF TIME STEP    1, STRESS PERIOD   31
 
 SOLVING FOR HEAD 
    41 ITERATIONS FOR TIME STEP   2 IN STRESS PERIOD   31

 MAXIMUM HEAD CHANGE FOR EACH ITERATION:

    HEAD CHANGE   HEAD CHANGE   HEAD CHANGE   HEAD CHANGE   HEAD CHANGE
  LAYER,ROW,COL LAYER,ROW,COL LAYER,ROW,COL LAYER,ROW,COL LAYER,ROW,COL
 ----------------------------------------------------------------------
      1.410         2.264         2.160        -1.057        -2.614    
  (  3,  1,  1) (  3,  2, 10) (  3, 10, 10) (  3, 10, 10) (  3,  1,  1)
     0.3411       -0.4269        -1.084        0.1882        0.1271    
  (  2,  3,  6) (  3,  1,  1) (  3,  1, 10) (  3, 10,  1) (  2,  4,  5)
    -0.4779E-01   -0.1124E-01   -0.1845E-02   -0.1024E-02   -0.1388E-02
  (  2,  7,  1) (  2,  1,  2) (  3, 10,  2) (  3,  3,  2) (  3,  1, 10)
     0.1355E-02    0.5272E-03    0.2031E-02    0.9837E-03    0.2198E-02
  (  3, 10,  1) (  3,  9,  2) (  3,  5, 10) (  3, 10,  2) (  3,  1,  7)
     0.1121E-02    0.2410E-02    0.1902E-02    0.1353E-02    0.1000E-02
  (  3, 10, 10) (  3,  7,  4) (  3,  7,  8) (  3,  2,  1) (  3,  2,  1)
     0.6048E-03    0.6750E-03    0.4594E-03    0.3177E-03    0.2327E-03
  (  3,  1,  4) (  3,  2,  1) (  3,  2,  1) (  3,  2,  1) (  3,  2,  1)
     0.1476E-03    0.1547E-03    0.1089E-03    0.7377E-04    0.5405E-04
  (  2,  9,  1) (  3,  2,  1) (  3,  2,  1) (  3,  2,  1) (  3,  2,  1)
     0.3397E-04    0.3608E-04    0.2514E-04    0.1694E-04    0.1305E-04
  (  3,  2,  1) (  3,  2,  1) (  3,  1,  4) (  3,  3,  2) (  3,  1,  4)
     0.7970E-05
  (  3,  2,  1)


 OUTPUT CONTROL FOR STRESS PERIOD   31   TIME STEP    2
    SAVE HEAD FOR ALL LAYERS

 HEAD WILL BE SAVED ON UNIT   21 AT END OF TIME STEP    2, STRESS PERIOD   31
 
 SOLVING FOR HEAD 
    39 ITERATIONS FOR TIME STEP   3 IN STRESS PERIOD   31

 MAXIMUM HEAD CHANGE FOR EACH ITERATION:

    HEAD CHANGE   HEAD CHANGE   HEAD CHANGE   HEAD CHANGE   HEAD CHANGE
  LAYER,ROW,COL LAYER,ROW,COL LAYER,ROW,COL LAYER,ROW,COL LAYER,ROW,COL
 ----------------------------------------------------------------------
     0.9633         1.814         1.807       -0.7736        -2.566    
  (  3, 10, 10) (  3,  1,  9) (  3,  3,  8) (  3, 10, 10) (  3,  1,  1)
     0.5440       -0.3217       -0.8826        0.4362       -0.3324E-01
  (  2,  3,  6) (  3,  1,  1) (  3,  1, 10) (  3,  1, 10) (  2,  1,  1)
    -0.4007E-01   -0.1174E-01   -0.3702E-02   -0.1754E-02   -0.1146E-02
  (  2,  6,  1) (  2,  1,  2) (  3,  2,  6) (  3,  6, 10) (  3,  3,  8)
     0.1255E-02    0.1284E-02    0.1669E-02    0.2216E-02    0.2609E-02
  (  3,  4,  1) (  3, 10, 10) (  3,  1,  7) (  3,  9, 10) (  3,  1,  7)
     0.1479E-02    0.1782E-02    0.1223E-02    0.7894E-03    0.5640E-03
  (  3,  1,  1) (  3,  2,  2) (  3,  4,  4) (  3,  1,  7) (  3,  1,  9)
     0.3481E-03    0.3783E-03    0.2649E-03    0.1693E-03    0.1226E-03
  (  2,  9,  1) (  3,  2,  2) (  3,  1,  7) (  3,  1,  9) (  3,  1,  7)
     0.9887E-04    0.8117E-04    0.5721E-04    0.3702E-04    0.2746E-04
  (  2,  9,  1) (  3,  1, 10) (  3,  4,  4) (  3,  1,  4) (  3,  1, 10)
     0.1618E-04    0.1787E-04    0.1340E-04    0.7999E-05
  (  3,  1, 10) (  3,  2,  2) (  3,  1,  7) (  3,  4,  3)


 OUTPUT CONTROL FOR STRESS PERIOD   31   TIME STEP    3
    SAVE HEAD FOR ALL LAYERS

 HEAD WILL BE SAVED ON UNIT   21 AT END OF TIME STEP    3, STRESS PERIOD   31
 
 SOLVING FOR HEAD 
    35 ITERATIONS FOR TIME STEP   4 IN STRESS PERIOD   31

 MAXIMUM HEAD CHANGE FOR EACH ITERATION:

    HEAD CHANGE   HEAD CHANGE   HEAD CHANGE   HEAD CHANGE   HEAD CHANGE
  LAYER,ROW,COL LAYER,ROW,COL LAYER,ROW,COL LAYER,ROW,COL LAYER,ROW,COL
 ----------------------------------------------------------------------
    -0.6723         1.478         1.454       -0.7718        -2.534    
  (  2,  3,  6) (  3,  1, 10) (  3, 10, 10) (  3, 10, 10) (  3,  1,  1)
     0.7163        0.3782E-01   -0.1720E-01   -0.1268E-01   -0.9029E-02
  (  2,  3,  7) (  2, 10,  2) (  3,  1, 10) (  3,  1,  1) (  3,  3,  7)
    -0.3750E-02   -0.5213E-02   -0.2635E-02   -0.1394E-02    0.2038E-02
  (  3,  1,  1) (  3,  2,  7) (  3,  7,  3) (  3,  2,  9) (  3,  1,  9)
     0.1210E-02    0.2719E-02    0.2334E-02    0.1474E-02    0.1037E-02
  (  3, 10,  4) (  3,  1,  1) (  3,  2,  6) (  3,  1,  1) (  3,  1,  3)
     0.5547E-03    0.7184E-03    0.5066E-03    0.2988E-03    0.2069E-03
  (  3,  1,  1) (  3,  2,  2) (  3,  2,  1) (  3,  1,  3) (  3,  1,  3)
     0.1173E-03    0.1422E-03    0.1013E-03    0.6009E-04    0.4244E-04
  (  3,  1, 10) (  3,  2,  2) (  3,  1,  4) (  3,  1,  5) (  3,  1,  1)
     0.2261E-04    0.2845E-04    0.2076E-04    0.1328E-04    0.8544E-05
  (  3,  1,  1) (  3,  2,  2) (  3,  2,  1) (  3,  1,  3) (  3,  3, 10)


 OUTPUT CONTROL FOR STRESS PERIOD   31   TIME STEP    4
    SAVE HEAD FOR ALL LAYERS

 HEAD WILL BE SAVED ON UNIT   21 AT END OF TIME STEP    4, STRESS PERIOD   31
 
 SOLVING FOR HEAD 
    31 ITERATIONS FOR TIME STEP   5 IN STRESS PERIOD   31

 MAXIMUM HEAD CHANGE FOR EACH ITERATION:

    HEAD CHANGE   HEAD CHANGE   HEAD CHANGE   HEAD CHANGE   HEAD CHANGE
  LAYER,ROW,COL LAYER,ROW,COL LAYER,ROW,COL LAYER,ROW,COL LAYER,ROW,COL
 ----------------------------------------------------------------------
    -0.5346        0.9719        0.8821       -0.7749        -2.234    
  (  2,  4,  6) (  3,  1, 10) (  3,  3,  4) (  3, 10, 10) (  3,  1,  1)
     0.6299        0.3484        0.1649        0.4309E-01    0.2251E-01
  (  3,  1, 10) (  3,  9,  6) (  2,  8,  6) (  2, 10,  1) (  2,  1,  1)
     0.6283E-01   -0.7482E-02   -0.5379E-02   -0.2817E-02   -0.1848E-02
  (  2,  6,  1) (  3,  2,  3) (  3,  7,  3) (  3,  7,  2) (  3,  8,  2)
    -0.7316E-03   -0.1254E-02   -0.9747E-03   -0.5296E-03   -0.3424E-03
  (  3,  8,  1) (  3,  7,  2) (  3,  7,  2) (  3,  8,  2) (  3,  7,  2)
    -0.1426E-03   -0.2367E-03   -0.1847E-03   -0.9860E-04   -0.6800E-04
  (  3,  8,  1) (  3,  8,  2) (  3,  7,  2) (  3,  7,  3) (  3,  8,  2)
    -0.2771E-04   -0.4624E-04   -0.3618E-04   -0.1960E-04   -0.1208E-04
  (  3,  8,  1) (  3,  8,  3) (  3,  7,  3) (  3,  8,  2) (  3,  8,  2)
     0.5819E-05
  (  2,  8,  1)


 OUTPUT CONTROL FOR STRESS PERIOD   31   TIME STEP    5
    SAVE HEAD FOR ALL LAYERS

 HEAD WILL BE SAVED ON UNIT   21 AT END OF TIME STEP    5, STRESS PERIOD   31
 
 SOLVING FOR HEAD 
    31 ITERATIONS FOR TIME STEP   6 IN STRESS PERIOD   31

 MAXIMUM HEAD CHANGE FOR EACH ITERATION:

    HEAD CHANGE   HEAD CHANGE   HEAD CHANGE   HEAD CHANGE   HEAD CHANGE
  LAYER,ROW,COL LAYER,ROW,COL LAYER,ROW,COL LAYER,ROW,COL LAYER,ROW,COL
 ----------------------------------------------------------------------
     0.2753        0.4734        0.4261       -0.9350        -1.119    
  (  3,  1, 10) (  3,  1,  9) (  3,  1,  1) (  3, 10,  4) (  3,  1,  1)
     0.5355        0.3328        0.1102        0.4197E-01   -0.1852E-01
  (  3,  1, 10) (  3,  2,  2) (  2,  3,  9) (  2,  3,  4) (  2,  1, 10)
     0.2264E-01   -0.1204E-01   -0.9889E-02   -0.4934E-02   -0.2942E-02
  (  2,  7,  1) (  3,  2,  7) (  3,  3,  4) (  3,  2,  6) (  3,  2,  7)
    -0.1227E-02   -0.1959E-02   -0.1692E-02   -0.8194E-03   -0.5155E-03
  (  3,  1, 10) (  3,  3,  6) (  3,  3,  5) (  3,  3,  6) (  3,  3,  6)
    -0.2271E-03   -0.3408E-03   -0.2848E-03   -0.1451E-03   -0.8695E-04
  (  2,  9,  1) (  3,  2,  7) (  3,  3,  5) (  3,  3,  6) (  3,  3,  7)
     0.4062E-04   -0.5635E-04   -0.4900E-04   -0.2479E-04   -0.1555E-04
  (  2,  3,  1) (  3,  3,  6) (  3,  3,  6) (  3,  3,  7) (  3,  3,  7)
    -0.6171E-05
  (  2,  9,  1)


 OUTPUT CONTROL FOR STRESS PERIOD   31   TIME STEP    6
    PRINT BUDGET
    PRINT HEAD FOR ALL LAYERS
    SAVE HEAD FOR ALL LAYERS
    SAVE DRAWDOWN FOR ALL LAYERS
1
              HEAD IN LAYER   1 AT END OF TIME STEP   6 IN STRESS PERIOD   31
  ---------------------------------------------------------------------------

           1       2       3       4       5       6       7       8       9      10
 ...................................................................................
   1    19.66   19.31   18.64   18.21   18.00   18.00   18.21   18.63   19.30   19.66
   2    18.66   18.15   17.72   17.42   17.26   17.26   17.41   17.71   18.14   18.65
   3    17.23   16.73   16.36   16.11   15.98   15.98   16.10   16.35   16.72   17.22
   4    15.30   14.86   14.56   14.37   14.27   14.27   14.36   14.55   14.85   15.29
   5    12.56   12.47   12.36   12.28   12.24   12.23   12.28   12.36   12.46   12.55
   6    10.17   10.15   10.11   10.07   10.05   10.05   10.07   10.11   10.14   10.17
   7     7.91    7.89    7.86    7.83    7.81    7.81    7.82    7.86    7.89    7.91
   8     5.74    5.69    5.62    5.54    5.49    5.49    5.53    5.61    5.69    5.74
   9     3.77    3.63    3.38    3.11    2.99    2.99    3.10    3.38    3.63    3.76
  10     2.36    2.02    1.27    0.00    0.00    0.00    0.00    1.27    2.01    2.36
1
              HEAD IN LAYER   2 AT END OF TIME STEP   6 IN STRESS PERIOD   31
  ---------------------------------------------------------------------------

           1       2       3       4       5       6       7       8       9      10
 ...................................................................................
   1    -5.77   -5.77   -5.77   -5.79   -5.80   -5.82   -5.84   -5.85   -5.87   -5.90
   2    -5.83   -5.06   -5.38   -5.87   -6.36   -6.73   -6.70   -6.37   -6.01   -6.03
   3    -5.93   -5.56   -6.07   -6.84   -7.26   -8.26   -7.96   -7.19   -6.89   -6.17
   4    -6.05   -5.80   -6.22   -6.79   -7.09   -7.46   -7.38   -7.08   -6.90   -6.29
   5    -6.18   -5.97   -6.15   -6.42   -6.70   -6.92   -6.95   -6.82   -6.65   -6.41
   6    -6.33   -6.09   -6.15   -6.27   -6.38   -6.47   -6.51   -6.50   -6.48   -6.53
   7    -6.49   -6.31   -6.34   -6.40   -6.46   -6.50   -6.52   -6.52   -6.53   -6.65
   8    -6.65   -6.69   -6.75   -6.81   -6.86   -6.88   -6.87   -6.85   -6.82   -6.77
   9    -6.81   -7.02   -7.05   -7.09   -7.11   -7.12   -7.10   -7.07   -7.03   -6.89
  10    -6.96   -6.99   -7.02   -7.04   -7.06   -7.06   -7.05   -7.04   -7.02   -7.00
1
              HEAD IN LAYER   3 AT END OF TIME STEP   6 IN STRESS PERIOD   31
  ---------------------------------------------------------------------------

           1       2       3       4       5       6       7       8       9      10
 ...................................................................................
   1   -27.68  -27.85  -28.17  -28.59  -29.03  -29.38  -29.55  -29.55  -29.47  -29.42
   2   -27.68  -27.94  -28.45  -29.19  -30.06  -30.84  -30.93  -30.53  -30.12  -29.89
   3   -27.32  -27.71  -28.54  -29.94  -32.18  -35.80  -34.95  -32.25  -30.78  -30.12
   4   -26.06  -26.38  -27.03  -28.05  -29.48  -31.36  -31.10  -29.75  -28.88  -28.45
   5   -24.18  -24.35  -24.69  -25.17  -25.70  -26.16  -26.25  -26.07  -25.85  -25.72
   6   -22.20  -22.28  -22.44  -22.65  -22.86  -23.04  -23.13  -23.14  -23.12  -23.09
   7   -20.46  -20.50  -20.57  -20.67  -20.76  -20.85  -20.91  -20.94  -20.96  -20.96
   8   -19.11  -19.13  -19.16  -19.21  -19.26  -19.30  -19.34  -19.37  -19.38  -19.39
   9   -18.20  -18.21  -18.23  -18.25  -18.28  -18.31  -18.33  -18.35  -18.36  -18.36
  10   -17.74  -17.75  -17.76  -17.78  -17.80  -17.81  -17.83  -17.84  -17.85  -17.86

 HEAD WILL BE SAVED ON UNIT   21 AT END OF TIME STEP    6, STRESS PERIOD   31

 DRAWDOWN WILL BE SAVED ON UNIT   22 AT END OF TIME STEP    6, STRESS PERIOD   31
1
  VOLUMETRIC BUDGET FOR ENTIRE MODEL AT END OF TIME STEP    6, STRESS PERIOD  31
  ------------------------------------------------------------------------------

     CUMULATIVE VOLUMES      L**3       RATES FOR THIS TIME STEP      L**3/T
     ------------------                 ------------------------

           IN:                                      IN:
           ---                                      ---
             STORAGE =    44996252.0000               STORAGE =        2945.8818
       CONSTANT HEAD =      873994.8750         CONSTANT HEAD =         169.2689
               WELLS =   328799808.0000                 WELLS =       30000.0000
    INST. IB STORAGE =    65361816.0000      INST. IB STORAGE =        4957.3745
    DELAY IB STORAGE =   169578176.0000      DELAY IB STORAGE =       14552.9678

            TOTAL IN =   609609984.0000              TOTAL IN =       52625.4961

          OUT:                                     OUT:
          ----                                     ----
             STORAGE =           0.0000               STORAGE =           0.0000
       CONSTANT HEAD =   280840384.0000         CONSTANT HEAD =       22625.6660
               WELLS =   328769824.0000                 WELLS =       30000.0000
    INST. IB STORAGE =           0.0000      INST. IB STORAGE =           0.0000
    DELAY IB STORAGE =           0.0000      DELAY IB STORAGE =           0.0000

           TOTAL OUT =   609610240.0000             TOTAL OUT =       52625.6641

            IN - OUT =        -256.0000              IN - OUT =          -0.1680

 PERCENT DISCREPANCY =          -0.00     PERCENT DISCREPANCY =          -0.00






         TIME SUMMARY AT END OF TIME STEP    6 IN STRESS PERIOD   31
                    SECONDS     MINUTES      HOURS       DAYS        YEARS
                    -----------------------------------------------------------
   TIME STEP LENGTH 9.18681E+06 1.53113E+05  2551.9      106.33     0.29111    
 STRESS PERIOD TIME 3.15619E+07 5.26032E+05  8767.2      365.30      1.0001    
         TOTAL TIME 9.46944E+08 1.57824E+07 2.63040E+05  10960.      30.007    
1

                               VOLUMETRIC BUDGET FOR SYSTEMS OF DELAY INTERBEDS
                                          AT END OF TIME STEP  6 IN STRESS PERIOD 31

          |   C U M U L A T I V E   V O L U M E S   L**3           | R A T E S   F O R  T H I S  T I M E  S T E P   L**3/T  |
   SYSTEM |    CHANGE IN     BOUNDARY                    PERCENT   |    CHANGE IN     BOUNDARY                    PERCENT   |
   NUMBER |     STORAGE        FLOW           SUM      DISCREPANCY |     STORAGE        FLOW           SUM      DISCREPANCY |
  --------|--------------------------------------------------------|--------------------------------------------------------|
      1    0.11530E+06   -0.11530E+06    0.23438E-01    0.20327E-04     7.7896        -7.7896        0.14305E-05    0.18364E-04
      2    0.16946E+09   -0.16946E+09     16.000        0.94416E-05     14545.        -14545.        0.78125E-02    0.53712E-04
  --------|--------------------------------------------------------|--------------------------------------------------------|
 TOTALS:    0.16958E+09   -0.16958E+09     16.000        0.94352E-05     14553.        -14553.        0.78125E-02    0.53683E-04

 Run end date and time (yyyy/mm/dd hh:mm:ss): 2013/07/31 13:35:32
 Elapsed run time:  4.669 Seconds

