                                  MODFLOW-2005     
      U.S. GEOLOGICAL SURVEY MODULAR FINITE-DIFFERENCE GROUND-WATER FLOW MODEL
                            VERSION 1.12.00 2/3/2017

 LIST FILE: UZFtest2.lst
                         UNIT    9

 OPENING UZFtest2.ba6
 FILE TYPE:BAS6   UNIT   75   STATUS:OLD    
 FORMAT:FORMATTED              ACCESS:SEQUENTIAL          

 OPENING UZFtest2.lpf
 FILE TYPE:LPF   UNIT    7   STATUS:OLD    
 FORMAT:FORMATTED              ACCESS:SEQUENTIAL          

 OPENING UZFtest2.dis
 FILE TYPE:DIS   UNIT    8   STATUS:OLD    
 FORMAT:FORMATTED              ACCESS:SEQUENTIAL          

 OPENING UZFtest2.sip
 FILE TYPE:SIP   UNIT   13   STATUS:OLD    
 FORMAT:FORMATTED              ACCESS:SEQUENTIAL          

 OPENING UZFtest2.oc
 FILE TYPE:OC   UNIT   14   STATUS:OLD    
 FORMAT:FORMATTED              ACCESS:SEQUENTIAL          

 OPENING UZFtest2.sfr
 FILE TYPE:SFR   UNIT   15   STATUS:OLD    
 FORMAT:FORMATTED              ACCESS:SEQUENTIAL          

 OPENING UZFtest2.wel
 FILE TYPE:WEL   UNIT   16   STATUS:OLD    
 FORMAT:FORMATTED              ACCESS:SEQUENTIAL          

 OPENING UZFtest2.ghb
 FILE TYPE:GHB   UNIT   17   STATUS:OLD    
 FORMAT:FORMATTED              ACCESS:SEQUENTIAL          

 OPENING UZFtest2.uzf
 FILE TYPE:UZF   UNIT   19   STATUS:OLD    
 FORMAT:FORMATTED              ACCESS:SEQUENTIAL          

 OPENING UZFtest2.gag
 FILE TYPE:GAGE   UNIT   32   STATUS:OLD    
 FORMAT:FORMATTED              ACCESS:SEQUENTIAL          

 OPENING UZFtest2hd.out
 FILE TYPE:DATA   UNIT   58   STATUS:UNKNOWN
 FORMAT:FORMATTED              ACCESS:SEQUENTIAL          

 OPENING UZFtest2.uzfot
 FILE TYPE:DATA(BINARY)   UNIT   61   STATUS:UNKNOWN
 FORMAT:BINARY                 ACCESS:SEQUENTIAL          

 OPENING UZFtest2.uzf1
 FILE TYPE:DATA   UNIT   65   STATUS:UNKNOWN
 FORMAT:FORMATTED              ACCESS:SEQUENTIAL          

 OPENING UZFtest2.uzf2
 FILE TYPE:DATA   UNIT   66   STATUS:UNKNOWN
 FORMAT:FORMATTED              ACCESS:SEQUENTIAL          

 OPENING UZFtest2.uzf3
 FILE TYPE:DATA   UNIT   67   STATUS:UNKNOWN
 FORMAT:FORMATTED              ACCESS:SEQUENTIAL          

 OPENING UZFtest2.uzf4
 FILE TYPE:DATA   UNIT   68   STATUS:UNKNOWN
 FORMAT:FORMATTED              ACCESS:SEQUENTIAL          

 OPENING UZFtest2.flw
 FILE TYPE:DATA   UNIT   81   STATUS:UNKNOWN
 FORMAT:FORMATTED              ACCESS:SEQUENTIAL          

 OPENING UZFtest2.sg1
 FILE TYPE:DATA   UNIT   83   STATUS:UNKNOWN
 FORMAT:FORMATTED              ACCESS:SEQUENTIAL          

 OPENING UZFtest2.sg2
 FILE TYPE:DATA   UNIT   84   STATUS:UNKNOWN
 FORMAT:FORMATTED              ACCESS:SEQUENTIAL          

 OPENING UZFtest2.sg3
 FILE TYPE:DATA   UNIT   85   STATUS:UNKNOWN
 FORMAT:FORMATTED              ACCESS:SEQUENTIAL          

 OPENING UZFtest2.sg4
 FILE TYPE:DATA   UNIT   86   STATUS:UNKNOWN
 FORMAT:FORMATTED              ACCESS:SEQUENTIAL          

 OPENING UZFtest2.sg5
 FILE TYPE:DATA   UNIT   87   STATUS:UNKNOWN
 FORMAT:FORMATTED              ACCESS:SEQUENTIAL          

 OPENING UZFtest2.sg6
 FILE TYPE:DATA   UNIT   88   STATUS:UNKNOWN
 FORMAT:FORMATTED              ACCESS:SEQUENTIAL          

 OPENING UZFtest2.sg7
 FILE TYPE:DATA   UNIT   89   STATUS:UNKNOWN
 FORMAT:FORMATTED              ACCESS:SEQUENTIAL          

 OPENING UZFtest2.sg8
 FILE TYPE:DATA   UNIT   90   STATUS:UNKNOWN
 FORMAT:FORMATTED              ACCESS:SEQUENTIAL          

 OPENING UZFtest2dv.sg9
 FILE TYPE:DATA   UNIT   91   STATUS:UNKNOWN
 FORMAT:FORMATTED              ACCESS:SEQUENTIAL          

 BAS -- BASIC PACKAGE, VERSION 7, 5/2/2005 INPUT READ FROM UNIT   75
 
 MODFLOW was compiled using mixed precision
 Precision of REAL variables:           6
 Precision of DOUBLE PRECISION variables:          15

 DISCRETIZATION INPUT DATA READ FROM UNIT    8
 #Test problem 2-- Discretization input
 #Example problem using the UZF1 Package
    1 LAYERS        15 ROWS        10 COLUMNS
   12 STRESS PERIOD(S) IN SIMULATION
 MODEL TIME UNIT IS SECONDS
 MODEL LENGTH UNIT IS FEET
  Confining bed flag for each layer:
   0

                     DELR =   5000.00    

                     DELC =   5000.00    



           TOP ELEVATION OF LAYER 1
 READING ON UNIT    8 WITH FORMAT: (10F7.0)            

            1           2           3           4           5           6           7           8           9          10
 ........................................................................................................................
   1    1105.       1105.       0.000       0.000       0.000       0.000       0.000       0.000       0.000       0.000    
   2    1105.       1095.       1105.       0.000       0.000       1100.       1100.       1110.       0.000       0.000    
   3    0.000       1100.       1085.       1080.       1078.       1076.       1073.       1090.       0.000       0.000    
   4    1110.       1100.       1090.       1085.       1076.       1080.       1080.       1070.       1100.       0.000    
   5    1110.       1100.       1085.       1080.       1078.       1074.       1077.       1066.       1075.       1080.    
   6    1105.       1095.       1080.       1077.       1073.       1069.       1070.       1063.       1085.       1095.    
   7    1105.       1090.       1075.       1072.       1070.       1065.       1065.       1069.       1090.       0.000    
   8    0.000       1080.       1070.       1068.       1063.       1060.       1063.       1067.       1090.       0.000    
   9    0.000       1075.       1065.       1062.       1058.       1052.       1055.       1065.       1090.       0.000    
  10    0.000       1070.       1060.       1055.       1046.       1046.       1044.       1060.       1088.       1100.    
  11    0.000       1055.       1050.       1045.       1041.       1042.       1040.       1050.       1075.       0.000    
  12    1027.       1028.       1028.       1032.       1032.       1033.       1032.       1040.       1060.       0.000    
  13    997.0       1004.       1008.       1014.       1020.       1027.       1032.       1038.       1050.       0.000    
  14    0.000       1030.       1040.       1045.       1050.       1050.       1050.       1050.       1044.       0.000    
  15    0.000       0.000       1080.       1080.       1080.       1080.       0.000       0.000       0.000       0.000    



             MODEL LAYER BOTTOM EL. FOR LAYER   1
 READING ON UNIT    8 WITH FORMAT: (10F7.0)            

            1           2           3           4           5           6           7           8           9          10
 ........................................................................................................................
   1    1000.       1000.       0.000       0.000       0.000       0.000       0.000       0.000       0.000       0.000    
   2    1000.       900.0       900.0       0.000       0.000       950.0       950.0       950.0       0.000       0.000    
   3    0.000       850.0       670.0       680.0       680.0       770.0       770.0       890.0       0.000       0.000    
   4    925.0       850.0       650.0       650.0       650.0       680.0       740.0       850.0       950.0       0.000    
   5    925.0       800.0       650.0       600.0       600.0       600.0       650.0       720.0       850.0       950.0    
   6    925.0       800.0       650.0       600.0       550.0       600.0       650.0       720.0       850.0       970.0    
   7    925.0       800.0       650.0       600.0       550.0       600.0       650.0       720.0       950.0       0.000    
   8    0.000       850.0       700.0       650.0       570.0       600.0       700.0       850.0       950.0       0.000    
   9    0.000       850.0       700.0       650.0       540.0       580.0       700.0       850.0       950.0       0.000    
  10    0.000       850.0       700.0       630.0       530.0       580.0       650.0       800.0       900.0       950.0    
  11    0.000       850.0       700.0       620.0       580.0       620.0       700.0       800.0       900.0       0.000    
  12    900.0       830.0       710.0       640.0       600.0       650.0       700.0       800.0       900.0       0.000    
  13    900.0       810.0       750.0       700.0       650.0       700.0       750.0       800.0       900.0       0.000    
  14    0.000       950.0       850.0       850.0       850.0       850.0       850.0       850.0       850.0       0.000    
  15    0.000       0.000       950.0       950.0       950.0       950.0       0.000       0.000       0.000       0.000    


 STRESS PERIOD     LENGTH       TIME STEPS     MULTIPLIER FOR DELT    SS FLAG
 ----------------------------------------------------------------------------
        1         2628000.          1                    1.000         SS
        2         2628000.         15                    1.100         TR
        3         2628000.         15                    1.100         TR
        4         2628000.         15                    1.100         TR
        5         2628000.         15                    1.100         TR
        6         2628000.         15                    1.100         TR
        7         2628000.         15                    1.100         TR
        8         2628000.         15                    1.100         TR
        9         2628000.         15                    1.100         TR
       10         2628000.         15                    1.100         TR
       11         2628000.         15                    1.100         TR
       12         2628000.         15                    1.100         TR

 COMBINED STEADY-STATE AND TRANSIENT SIMULATION



 
 #Test Simulation 2-- Example problem using the UZF1 Package                     
 #Modified from example Problem 1 of SFR1 documentation report                   
 THE FREE FORMAT OPTION HAS BEEN SELECTED



                     BOUNDARY ARRAY FOR LAYER   1
 READING ON UNIT   75 WITH FORMAT: (20I4)              

                1           2           3           4           5           6           7           8           9          10
 ............................................................................................................................
   1            1           1           0           0           0           0           0           0           0           0
   2            1           1           1           0           0           1           1           1           0           0
   3            0           1           1           1           1           1           1           1           0           0
   4            1           1           1           1           1           1           1           1           1           0
   5            1           1           1           1           1           1           1           1           1           1
   6            1           1           1           1           1           1           1           1           1           1
   7            1           1           1           1           1           1           1           1           1           0
   8            0           1           1           1           1           1           1           1           1           0
   9            0           1           1           1           1           1           1           1           1           0
  10            0           1           1           1           1           1           1           1           1           1
  11            0           1           1           1           1           1           1           1           1           0
  12            1           1           1           1           1           1           1           1           1           0
  13            1           1           1           1           1           1           1           1           1           0
  14            0           1           1           1           1           1           1           1           1           0
  15            0           0           1           1           1           1           0           0           0           0

 AQUIFER HEAD WILL BE SET TO   6999.0     AT ALL NO-FLOW NODES (IBOUND=0).



                       INITIAL HEAD FOR LAYER   1
 READING ON UNIT   75 WITH FORMAT: (10F8.0)            

            1           2           3           4           5           6           7           8           9          10
 ........................................................................................................................
   1    1093.       1089.       6999.       6999.       6999.       6999.       6999.       6999.       6999.       6999.    
   2    1090.       1087.       1081.       6999.       6999.       1072.       1071.       1071.       6999.       6999.    
   3    6999.       1079.       1078.       1074.       1072.       1071.       1069.       1068.       6999.       6999.    
   4    1069.       1071.       1070.       1067.       1065.       1064.       1064.       1066.       1066.       6999.    
   5    1065.       1064.       1063.       1062.       1061.       1061.       1060.       1062.       1066.       1068.    
   6    1060.       1058.       1057.       1056.       1056.       1057.       1057.       1059.       1062.       1066.    
   7    1056.       1053.       1052.       1051.       1051.       1052.       1053.       1055.       1056.       6999.    
   8    6999.       1046.       1046.       1046.       1046.       1046.       1048.       1050.       1050.       6999.    
   9    6999.       1039.       1039.       1039.       1040.       1041.       1042.       1043.       1044.       6999.    
  10    6999.       1031.       1032.       1033.       1034.       1035.       1037.       1038.       1039.       1042.    
  11    6999.       1021.       1023.       1027.       1029.       1030.       1032.       1034.       1036.       6999.    
  12    1001.       1009.       1015.       1020.       1023.       1026.       1029.       1030.       1034.       6999.    
  13    994.5      1000.0       1007.       1013.       1019.       1024.       1029.       1034.       1036.       6999.    
  14    6999.       1004.       1009.       1014.       1019.       1024.       1029.       1035.       1039.       6999.    
  15    6999.       6999.       1012.       1015.       1019.       1022.       6999.       6999.       6999.       6999.    

 OUTPUT CONTROL IS SPECIFIED ONLY AT TIME STEPS FOR WHICH OUTPUT IS DESIRED
 HEADS WILL BE SAVED WITH FORMAT: (10F10.3)           
 SAVED HEADS WILL BE LABELED
 HEAD PRINT FORMAT CODE IS   4    DRAWDOWN PRINT FORMAT CODE IS   0
 HEADS WILL BE SAVED ON UNIT   58    DRAWDOWNS WILL BE SAVED ON UNIT    0

 LPF -- LAYER-PROPERTY FLOW PACKAGE, VERSION 7, 5/2/2005
         INPUT READ FROM UNIT    7
 #Layer-Property Flow Package input for test simulation 2
 HEAD AT CELLS THAT CONVERT TO DRY=   0.0000    
 No named parameters

   LAYER FLAGS:
 LAYER       LAYTYP        LAYAVG         CHANI        LAYVKA        LAYWET
 ---------------------------------------------------------------------------
    1             1             0     1.000E+00             0             0

   INTERPRETATION OF LAYER FLAGS:
                        INTERBLOCK     HORIZONTAL    DATA IN
         LAYER TYPE   TRANSMISSIVITY   ANISOTROPY   ARRAY VKA   WETTABILITY
 LAYER      (LAYTYP)      (LAYAVG)       (CHANI)      (LAYVKA)      (LAYWET)
 ---------------------------------------------------------------------------
    1   CONVERTIBLE      HARMONIC     1.000E+00    VERTICAL K  NON-WETTABLE

 WETTING CAPABILITY IS NOT ACTIVE IN ANY LAYER



              HYD. COND. ALONG ROWS FOR LAYER   1
 READING ON UNIT    7 WITH FORMAT: (10F5.0)            

            1           2           3           4           5           6           7           8           9          10
 ........................................................................................................................
   1   2.0000E-03  2.0000E-03   0.000       0.000       0.000       0.000       0.000       0.000       0.000       0.000    
   2   4.0000E-04  2.0000E-03  2.0000E-03   0.000       0.000      4.0000E-04  4.0000E-04  4.0000E-04   0.000       0.000    
   3    0.000      4.0000E-04  2.0000E-03  2.0000E-03  4.0000E-04  4.0000E-04  4.0000E-04  4.0000E-04   0.000       0.000    
   4   4.0000E-04  4.0000E-04  4.0000E-04  2.0000E-03  2.0000E-03  2.0000E-03  4.0000E-04  4.0000E-04  4.0000E-04   0.000    
   5   4.0000E-04  4.0000E-04  4.0000E-04  2.0000E-03  2.0000E-03  2.0000E-03  2.0000E-03  2.0000E-03  2.0000E-03  2.0000E-03
   6   4.0000E-04  4.0000E-04  4.0000E-04  2.0000E-03  2.0000E-03  2.0000E-03  2.0000E-03  2.0000E-03  4.0000E-04  4.0000E-04
   7   4.0000E-04  4.0000E-04  4.0000E-04  2.0000E-03  2.0000E-03  2.0000E-03  2.0000E-03  2.0000E-03  4.0000E-04   0.000    
   8    0.000      4.0000E-04  4.0000E-04  2.0000E-03  2.0000E-03  2.0000E-03  2.0000E-03  4.0000E-04  4.0000E-04   0.000    
   9    0.000      4.0000E-04  4.0000E-04  2.0000E-03  2.0000E-03  2.0000E-03  2.0000E-03  4.0000E-04  4.0000E-04   0.000    
  10    0.000      4.0000E-04  4.0000E-04  2.0000E-03  2.0000E-03  2.0000E-03  2.0000E-03  4.0000E-04  4.0000E-04  4.0000E-04
  11    0.000      4.0000E-04  4.0000E-04  2.0000E-03  2.0000E-03  2.0000E-03  2.0000E-03  4.0000E-04  4.0000E-04   0.000    
  12   4.0000E-04  4.0000E-04  2.0000E-03  2.0000E-03  2.0000E-03  2.0000E-03  2.0000E-03  4.0000E-04  4.0000E-04   0.000    
  13   2.0000E-03  2.0000E-03  2.0000E-03  2.0000E-03  2.0000E-03  2.0000E-03  2.0000E-03  2.0000E-03  2.0000E-03   0.000    
  14    0.000      4.0000E-04  4.0000E-04  4.0000E-04  4.0000E-04  4.0000E-04  4.0000E-04  4.0000E-04  2.0000E-03   0.000    
  15    0.000       0.000      4.0000E-04  4.0000E-04  4.0000E-04  4.0000E-04   0.000       0.000       0.000       0.000    

      VERTICAL HYD. COND. =  1.000000E-06 FOR LAYER   1

         SPECIFIC STORAGE =  1.000000E-06 FOR LAYER   1



                     SPECIFIC YIELD FOR LAYER   1
 READING ON UNIT    7 WITH FORMAT: (10F5.0)            

            1           2           3           4           5           6           7           8           9          10
 ........................................................................................................................
   1   0.2000      0.2000       0.000       0.000       0.000       0.000       0.000       0.000       0.000       0.000    
   2   0.1000      0.2000      0.2000       0.000       0.000      0.1000      0.1000      0.1000       0.000       0.000    
   3    0.000      0.1000      0.2000      0.2000      0.1000      0.1000      0.1000      0.1000       0.000       0.000    
   4   0.1000      0.1000      0.1000      0.2000      0.2000      0.2000      0.1000      0.1000      0.1000       0.000    
   5   0.1000      0.1000      0.1000      0.2000      0.2000      0.2000      0.2000      0.2000      0.2000      0.2000    
   6   0.1000      0.1000      0.1000      0.2000      0.2000      0.2000      0.2000      0.2000      0.1000      0.1000    
   7   0.1000      0.1000      0.1000      0.2000      0.2000      0.2000      0.2000      0.2000      0.1000       0.000    
   8    0.000      0.1000      0.1000      0.2000      0.2000      0.2000      0.2000      0.1000      0.1000       0.000    
   9    0.000      0.1000      0.1000      0.2000      0.2000      0.2000      0.2000      0.1000      0.1000       0.000    
  10    0.000      0.1000      0.1000      0.2000      0.2000      0.2000      0.2000      0.1000      0.1000      0.1000    
  11    0.000      0.1000      0.1000      0.2000      0.2000      0.2000      0.2000      0.1000      0.1000       0.000    
  12   0.1000      0.1000      0.2000      0.2000      0.2000      0.2000      0.2000      0.1000      0.1000       0.000    
  13   0.2000      0.2000      0.2000      0.2000      0.2000      0.2000      0.2000      0.2000      0.2000       0.000    
  14    0.000      0.1000      0.1000      0.1000      0.1000      0.1000      0.1000      0.1000      0.2000       0.000    
  15    0.000       0.000      0.1000      0.1000      0.1000      0.1000       0.000       0.000       0.000       0.000    

 WEL -- WELL PACKAGE, VERSION 7, 5/2/2005 INPUT READ FROM UNIT   16
 #Well Package input for test simulation 2
 No named parameters
 MAXIMUM OF     10 ACTIVE WELLS AT ONE TIME
 CELL-BY-CELL FLOWS WILL BE PRINTED WHEN ICBCFL NOT 0


     0 Well parameters

 GHB -- GENERAL-HEAD BOUNDARY PACKAGE, VERSION 7, 5/2/2005
         INPUT READ FROM UNIT   17
 No named parameters
 MAXIMUM OF      2 ACTIVE GHB CELLS AT ONE TIME
 CELL-BY-CELL FLOWS WILL BE PRINTED WHEN ICBCFL NOT 0


     0 GHB parameters

 SFR7 -- STREAMFLOW ROUTING PACKAGE, VERSION 1.0.8, 2017-02-01
         INPUT READ FROM UNIT  15
 #SFR2 Package input for Test Simulation 2
 No named parameters

 END PROCESSING SFR2 OPTIONS


 NUMBER OF STREAM REACHES IS   36

 NUMBER OF STREAM SEGMENTS IS    8

 NUMBER OF STREAM PARAMETERS IS    0

 NUMBER OF STREAM SEGMENTS DEFINED USING PARAMETERS IS              0

 MAXIMUM ERROR FOR STREAM LEAKAGE RATES IS  1.00E-06

 CONSTANT FOR MANNINGS EQUATION IS  1.4860E+00



 STREAM OUTPUT WILL BE WRITTEN TO FILE ON UNIT   81


   STREAM NETWORK DESCRIPTION: 

   LAYER    ROW    COL   SEGMENT   REACH     LENGTH
                          NUMBER   NUMBER    IN CELL        
   --------------------------------------------------
      1      1      1       1        1    4.5000E+03
      1      2      2       1        2    7.0000E+03
      1      3      3       1        3    6.0000E+03
      1      3      4       1        4    5.5500E+03
      1      4      5       2        1    6.5000E+03
      1      5      6       2        2    5.0000E+03
      1      6      6       2        3    5.0000E+03
      1      7      6       2        4    5.0000E+03
      1      8      6       2        5    5.0000E+03
      1      3      5       3        1    5.0000E+03
      1      3      6       3        2    5.0000E+03
      1      3      7       3        3    4.5000E+03
      1      4      8       3        4    6.0000E+03
      1      5      8       3        5    5.0000E+03
      1      6      8       3        6    2.0000E+03
      1      5     10       4        1    2.5000E+03
      1      5      9       4        2    5.0000E+03
      1      6      8       4        3    3.5000E+03
      1      6      8       5        1    4.0000E+03
      1      7      7       5        2    5.0000E+03
      1      8      7       5        3    3.5000E+03
      1      8      6       5        4    2.5000E+03
      1      9      6       6        1    5.0000E+03
      1     10      7       6        2    5.0000E+03
      1     11      7       6        3    5.0000E+03
      1     12      7       6        4    5.0000E+03
      1     13      7       6        5    2.0000E+03
      1     14      9       7        1    5.0000E+03
      1     13      8       7        2    5.5000E+03
      1     13      7       7        3    5.0000E+03
      1     13      6       8        1    5.0000E+03
      1     13      5       8        2    5.0000E+03
      1     13      4       8        3    5.0000E+03
      1     13      3       8        4    5.0000E+03
      1     13      2       8        5    5.0000E+03
      1     13      1       8        6    3.0000E+03




 UZF1 -- UNSATURATED FLOW PACKAGE, VERSION 1.4, 02/06/2012
         INPUT READ FROM UNIT 19
 #UZF Package input for test simulation 2
 No named parameters

 END PROCESSING UZF OPTIONS



            AREAL EXTENT OF UZ FLOW
 READING ON UNIT   19 WITH FORMAT: (20I4)              

                1           2           3           4           5           6           7           8           9          10
 ............................................................................................................................
   1            1           1           0           0           0           0           0           0           0           0
   2            1           1           1           0           0           1           1           1           0           0
   3            0           1           1           1           1           1           1           1           0           0
   4            1           1           1           1           1           1           1           1           1           0
   5            1           1           1           1           1           1           1           1           1           1
   6            1           1           1           1           1           1           1           1           1           1
   7            1           1           1           1           1           1           1           1           1           0
   8            0           1           1           1           1           1           1           1           1           0
   9            0           1           1           1           1           1           1           1           1           0
  10            0           1           1           1           1           1           1           1           1           1
  11            0           1           1           1           1           1           1           1           1           0
  12            1           1           1           1           1           1           1           1           1           0
  13            1           1           1           1           1           1           1           1           1           0
  14            0           1           1           1           1           1           1           1           1           0
  15            0           0           1           1           1           1           0           0           0           0
 OPTION 1 -- RECHARGE IN UZF TO TOP LAYER ONLY 



            ROUTING OVERLAND RUNOFF
 READING ON UNIT   19 WITH FORMAT: (20I4)              

                1           2           3           4           5           6           7           8           9          10
 ............................................................................................................................
   1            1           1           0           0           0           0           0           0           0           0
   2            1           1           1           0           0           3           3           3           0           0
   3            0           1           1           1           3           3           3           3           0           0
   4            8           8           2           2           2           2           2           3           3           0
   5            8           8           8           8           2           2           2           3           4           4
   6            8           8           8           8           8           2           2           4           4           4
   7            8           8           8           8           8           2           5           5           5           0
   8            0           8           8           8           8           2           5           5           5           0
   9            0           8           8           8           8           6           6           6           6           0
  10            0           8           8           8           8           6           6           6           6           6
  11            0           8           8           8           8           8           6           6           7           0
  12            8           8           8           8           8           8           6           7           7           0
  13            8           8           8           8           8           8           7           7           7           0
  14            0           8           8           8           8           8           7           7           7           0
  15            0           0           8           8           8           8           0           0           0           0



               SATURATED VERTICAL K
 READING ON UNIT   19 WITH FORMAT: (10F4.0)            

            1           2           3           4           5           6           7           8           9          10
 ........................................................................................................................
   1   1.0000E-06  1.0000E-06   0.000       0.000       0.000       0.000       0.000       0.000       0.000       0.000    
   2   1.0000E-06  1.0000E-06  1.0000E-06   0.000       0.000      1.0000E-06  1.0000E-06  1.0000E-06   0.000       0.000    
   3    0.000      1.0000E-06  1.0000E-06  1.0000E-06  1.0000E-06  1.0000E-06  1.0000E-06  1.0000E-06   0.000       0.000    
   4   1.0000E-06  1.0000E-06  1.0000E-06  1.0000E-06  1.0000E-06  1.0000E-06  1.0000E-06  1.0000E-06  1.0000E-06   0.000    
   5   1.0000E-06  1.0000E-06  1.0000E-06  1.0000E-06  1.0000E-06  1.0000E-06  1.0000E-06  1.0000E-06  1.0000E-06  1.0000E-06
   6   1.0000E-06  1.0000E-06  1.0000E-06  1.0000E-06  1.0000E-06  1.0000E-06  1.0000E-06  1.0000E-06  1.0000E-06  1.0000E-06
   7   1.0000E-06  1.0000E-06  1.0000E-06  1.0000E-06  1.0000E-06  1.0000E-06  1.0000E-06  1.0000E-06  1.0000E-06   0.000    
   8    0.000      1.0000E-06  1.0000E-06  1.0000E-06  1.0000E-06  1.0000E-06  1.0000E-06  1.0000E-06  1.0000E-06   0.000    
   9    0.000      1.0000E-06  1.0000E-06  1.0000E-06  1.0000E-06  1.0000E-06  1.0000E-06  1.0000E-06  1.0000E-06   0.000    
  10    0.000      1.0000E-06  1.0000E-06  1.0000E-06  1.0000E-06  1.0000E-06  1.0000E-06  1.0000E-06  1.0000E-06  1.0000E-06
  11    0.000      1.0000E-06  1.0000E-06  1.0000E-06  1.0000E-06  1.0000E-06  1.0000E-06  1.0000E-06  1.0000E-06   0.000    
  12   1.0000E-06  1.0000E-06  1.0000E-06  1.0000E-06  1.0000E-06  1.0000E-06  1.0000E-06  1.0000E-06  1.0000E-06   0.000    
  13   1.0000E-06  1.0000E-06  1.0000E-06  1.0000E-06  1.0000E-06  1.0000E-06  1.0000E-06  1.0000E-06  1.0000E-06   0.000    
  14    0.000      1.0000E-06  1.0000E-06  1.0000E-06  1.0000E-06  1.0000E-06  1.0000E-06  1.0000E-06  1.0000E-06   0.000    
  15    0.000       0.000      1.0000E-06  1.0000E-06  1.0000E-06  1.0000E-06   0.000       0.000       0.000       0.000    

     BROOKS-COREY EPSILON =   3.50000    

  SATURATED WATER CONTENT =  0.300000    

UNSATURATED FLOW RESULTS WILL BE PRINTED TO SEPARATE FILES FOR SELECTED MODEL CELLS, AND TIME STEPS AS DEFINED BY OUTPUT CONTROL PACKAGE 

SELECTED MODEL CELLS ARE: 
 ROW NUMBER  COLUMN NUMBER  FORTRAN UNIT NUMBER  OUTPUT OPTION


       3             6                 65                 1
       6             3                 66                 2
      10             5                 67                 3
       0             0                 68                 4



   9 GAGING STATIONS WERE SPECIFIED.
     (Lakes are identified by a negative value of the Lake Number)
     RECORDS WILL BE WRITTEN TO SEPARATE OUTPUT FILES REPRESENTED BY FOLLOWING UNIT NUMBERS:

 Stream Gages:
  GAGE #   SEGMENT   REACH   UNIT   OUTTYPE
       1       1       4      83       1
       2       2       3      84       1
       3       3       5      85       1
       4       4       3      86       1
       5       5       4      87       4
       6       6       5      88       4
       7       7       3      89       4
       8       8       6      90       4
       9       3       1      91       5





 SIP -- STRONGLY-IMPLICIT PROCEDURE SOLUTION PACKAGE
                    VERSION 7, 5/2/2005 INPUT READ FROM UNIT   13
 MAXIMUM OF 300 ITERATIONS ALLOWED FOR CLOSURE
  5 ITERATION PARAMETERS

          SOLUTION BY THE STRONGLY IMPLICIT PROCEDURE
          -------------------------------------------
 MAXIMUM ITERATIONS ALLOWED FOR CLOSURE =      300
                 ACCELERATION PARAMETER =    0.80000    
      HEAD CHANGE CRITERION FOR CLOSURE =    0.20000E-03
      SIP HEAD CHANGE PRINTOUT INTERVAL =        1

     CALCULATE ITERATION PARAMETERS FROM MODEL CALCULATED WSEED
1
                            STRESS PERIOD NO.    1, LENGTH =   2628000.    
                            -----------------------------------------------

                              NUMBER OF TIME STEPS =     1

                               MULTIPLIER FOR DELT =     1.000

                            INITIAL TIME STEP SIZE =   2628000.    

 WELL NO.  LAYER   ROW   COL   STRESS RATE         
 --------------------------------------------------
      1      1      6      4      -2.000    
      2      1      6      5      -2.000    
      3      1      7      4      -2.000    
      4      1      7      5      -2.000    
      5      1      8      4      -2.000    
      6      1      8      5      -2.000    
      7      1      9      4      -2.000    
      8      1      9      5      -2.000    
      9      1     10      4      -2.000    
     10      1     10      5      -2.000    

     10 WELLS

 BOUND. NO. LAYER   ROW   COL     STAGE      CONDUCTANCE         
 ----------------------------------------------------------------
      1      1     13      1       988.0          0.3800E-01
      2      1     14      9       1045.          0.3800E-01

      2 GHB CELLS



 CLASSIFICATION & COUNT OF STREAM SEGMENTS BASED ON SOURCE OF INFLOW:

                HEADWATER     DIVERSION     RECEIVES TRIBUTARY FLOW
                ---------     ---------     -----------------------
                     3              1               4



                    INPUT DATA FOR EACH STREAM SEGMENT
 ---------------------------------------------------------------------------------------------

 SEGMENT    SEG.     INFLOW   OVERLAND   STREAM    STREAM   ICALC  OUTFLOW  DIVERSION PRIORITY
    NO.    LENGTH     RATE     RUNOFF      ET       PPT.    METH.  TO SEG.  FROM SEG.    NO.

      1  2.305E+04 2.500E+01 0.000E+00 0.000E+00 0.000E+00    4        2        0        0
      2  2.650E+04 0.000E+00 0.000E+00 0.000E+00 0.000E+00    1        6        0        0
      3  2.750E+04 1.000E+01 0.000E+00 0.000E+00 0.000E+00    0        5        1        0
      4  1.100E+04 1.000E+01 0.000E+00 0.000E+00 0.000E+00    1        5        0        0
      5  1.500E+04 0.000E+00 0.000E+00 0.000E+00 0.000E+00    3        6        0        0
      6  2.200E+04 0.000E+00 0.000E+00 0.000E+00 0.000E+00    1        8        0        0
      7  1.550E+04 1.500E+02 0.000E+00 0.000E+00 0.000E+00    2        8        0        0
      8  2.800E+04 0.000E+00 0.000E+00 0.000E+00 0.000E+00    2        0        0        0


         STREAMBED PROPERTIES AND STREAM DIMENSIONS

 SEGMENT     BED HYD. COND.      BED THICKNESS     ELEV.-TOP OF BED     WIDTH OF STREAM     DEPTH OF STREAM    STREAM ROUGHNESS
    No.     UPPER     LOWER     UPPER     LOWER     UPPER     LOWER     UPPER     LOWER     UPPER     LOWER   CHANNEL      BANK

     1  3.000E-05 3.000E-05 3.000E+00 3.000E+00 1.095E+03 1.075E+03
     2  3.000E-05 3.000E-05 3.000E+00 3.000E+00 1.075E+03 1.050E+03 1.200E+01 1.200E+01                     3.000E-02
     3  3.000E-05 3.000E-05 2.000E+00 2.000E+00 1.075E+03 1.060E+03 1.000E+01 6.000E+00 2.000E+00 1.000E+00
     4  3.000E-05 3.000E-05 3.000E+00 3.000E+00 1.080E+03 1.060E+03 1.000E+01 1.000E+01                     3.000E-02
     5  3.000E-05 3.000E-05 3.000E+00 3.000E+00 1.060E+03 1.045E+03
     6  3.000E-05 3.000E-05 3.000E+00 3.000E+00 1.045E+03 1.025E+03 1.200E+01 1.200E+01                     3.000E-02
     7  6.000E-05 6.000E-05 3.000E+00 3.000E+00 1.040E+03 1.025E+03                                         2.500E-02 4.500E-02
     8  6.000E-05 6.000E-05 3.000E+00 3.000E+00 1.025E+03 9.900E+02                                         2.500E-02 4.500E-02

  EIGHT POINT CROSS-SECTION DATA FOR SEGMENTS WITH ICALC = 2
    X VALUES X VALUES START FROM LEFT SIDE LOOKING DOWNSTREAM

     SEGMENT NO.        X1        X2        X3        X4        X5        X6        X7        X8
            7      0.000E+00 1.000E+01 8.000E+01 1.000E+02 1.500E+02 1.700E+02 2.400E+02 2.500E+02
            8      0.000E+00 1.000E+01 8.000E+01 1.000E+02 1.500E+02 1.700E+02 2.400E+02 2.500E+02

    Z VALUES ARE RELATIVE TO STREAMBED ELEVATION

     SEGMENT NO.          Z1        Z2        Z3        Z4        Z5        Z6        Z7        Z8
            7      2.000E+01 1.300E+01 1.000E+01 2.000E+00 0.000E+00 1.000E+01 1.300E+01 2.000E+01
            8      2.500E+01 1.700E+01 1.300E+01 4.000E+00 0.000E+00 1.000E+01 1.600E+01 2.000E+01

 STREAMFLOW RELATION WITH DEPTH IS BASED ON EQUATION Q = CDPTH*(DEPTH)**FDPTH
 STREAMFLOW RELATION WITH WIDTH IS BASED ON EQUATION Q = AWDTH*(WIDTH)**BWDTH

 SEGMENT NO.      CDPTH     FDPTH    AWDTH     BWDTH

          5 3.000E-01 3.500E-01 3.800E+00 6.000E-01

 STREAMFLOW RELATION WITH DEPTH AND WIDTH IS BASED ON TABULATED VALUES

  SEGMENT NO.   STREAMFLOW       DEPTH       WIDTH

          1     5.0000E-01   2.5000E-01   3.0000E+00
          1     1.0000E+00   4.0000E-01   3.5000E+00
          1     2.0000E+00   5.5000E-01   4.2000E+00
          1     4.0000E+00   7.0000E-01   5.3000E+00
          1     7.0000E+00   8.0000E-01   7.0000E+00
          1     1.0000E+01   9.0000E-01   8.5000E+00
          1     2.0000E+01   1.1000E+00   1.2000E+01
          1     3.0000E+01   1.2500E+00   1.4000E+01
          1     5.0000E+01   1.4000E+00   1.7000E+01
          1     7.5000E+01   1.7000E+00   2.0000E+01
          1     1.0000E+02   1.8000E+00   2.2000E+01






            AREAL INFILTRATION RATE
 READING ON UNIT   19 WITH FORMAT: (10F4.0)            

            1           2           3           4           5           6           7           8           9          10
 ........................................................................................................................
   1   1.0000E-09  2.0000E-09   0.000       0.000       0.000       0.000       0.000       0.000       0.000       0.000    
   2   2.0000E-09  1.0000E-09  2.0000E-09   0.000       0.000      8.0000E-09  8.0000E-09  5.0000E-09   0.000       0.000    
   3    0.000      5.0000E-09  1.0000E-09  1.0000E-09  8.0000E-09  8.0000E-09  5.0000E-09  5.0000E-09   0.000       0.000    
   4   8.0000E-09  5.0000E-09  1.0000E-09  1.0000E-09  1.0000E-09  1.0000E-09  1.0000E-09  1.0000E-09  2.0000E-09   0.000    
   5   8.0000E-09  5.0000E-09  1.0000E-09  1.0000E-09  1.0000E-09  1.0000E-09  1.0000E-09  1.0000E-09  1.0000E-09  1.0000E-09
   6   8.0000E-09  5.0000E-09  5.0000E-09  2.0000E-09  2.0000E-09  1.0000E-09  1.0000E-09  1.0000E-09  1.0000E-09  5.0000E-09
   7   8.0000E-09  5.0000E-09  5.0000E-09  2.0000E-09  2.0000E-09  1.0000E-09  1.0000E-09  2.0000E-09  2.0000E-09   0.000    
   8    0.000      5.0000E-09  5.0000E-09  2.0000E-09  2.0000E-09  1.0000E-09  1.0000E-09  2.0000E-09  5.0000E-09   0.000    
   9    0.000      5.0000E-09  5.0000E-09  2.0000E-09  2.0000E-09  1.0000E-09  1.0000E-09  2.0000E-09  5.0000E-09   0.000    
  10    0.000      5.0000E-09  5.0000E-09  2.0000E-09  2.0000E-09  1.0000E-09  1.0000E-09  2.0000E-09  5.0000E-09  8.0000E-09
  11    0.000      1.0000E-09  1.0000E-09  1.0000E-09  1.0000E-09  1.0000E-09  1.0000E-09  2.0000E-09  5.0000E-09   0.000    
  12   1.0000E-09  1.0000E-09  1.0000E-09  1.0000E-09  1.0000E-09  1.0000E-09  1.0000E-09  1.0000E-09  2.0000E-09   0.000    
  13   1.0000E-09  1.0000E-09  2.0000E-09  2.0000E-09  2.0000E-09  2.0000E-09  2.0000E-09  1.0000E-09  1.0000E-09   0.000    
  14    0.000      2.0000E-09  5.0000E-09  5.0000E-09  5.0000E-09  5.0000E-09  5.0000E-09  2.0000E-09  1.0000E-09   0.000    
  15    0.000       0.000      8.0000E-09  8.0000E-09  8.0000E-09  8.0000E-09   0.000       0.000       0.000       0.000    

                  ET RATE =  5.000000E-08

      ET EXTINCTION DEPTH =   15.0000    



           EXTINCTION WATER CONTENT
 READING ON UNIT   19 WITH FORMAT: (10F4.0)            

            1           2           3           4           5           6           7           8           9          10
 ........................................................................................................................
   1   0.1000      0.1000       0.000       0.000       0.000       0.000       0.000       0.000       0.000       0.000    
   2   0.2000      0.1000      0.1000       0.000       0.000      0.2000      0.2000      0.2000       0.000       0.000    
   3    0.000      0.2000      0.1000      0.1000      0.2000      0.2000      0.2000      0.2000       0.000       0.000    
   4   0.2000      0.2000      0.2000      0.1000      0.1000      0.1000      0.2000      0.2000      0.2000      0.1000    
   5   0.2000      0.2000      0.2000      0.1000      0.1000      0.1000      0.1000      0.1000      0.1000      0.1000    
   6   0.2000      0.2000      0.2000      0.1000      0.1000      0.1000      0.1000      0.1000      0.2000      0.2000    
   7   0.2000      0.2000      0.2000      0.1000      0.1000      0.1000      0.1000      0.1000      0.2000       0.000    
   8    0.000      0.2000      0.2000      0.1000      0.1000      0.1000      0.1000      0.2000      0.2000       0.000    
   9    0.000      0.2000      0.2000      0.1000      0.1000      0.1000      0.1000      0.2000      0.2000       0.000    
  10    0.000      0.2000      0.2000      0.1000      0.1000      0.1000      0.1000      0.2000      0.2000      0.2000    
  11    0.000      0.2000      0.2000      0.1000      0.1000      0.1000      0.1000      0.2000      0.2000       0.000    
  12   0.2000      0.2000      0.1000      0.1000      0.1000      0.1000      0.1000      0.2000      0.2000       0.000    
  13   0.1000      0.1000      0.1000      0.1000      0.1000      0.1000      0.1000      0.1000      0.1000       0.000    
  14    0.000      0.2000      0.2000      0.2000      0.2000      0.2000      0.2000      0.2000      0.1000       0.000    
  15    0.000       0.000      0.2000      0.2000      0.2000      0.2000       0.000       0.000       0.000       0.000    
 
 SOLVING FOR HEAD 

 AVERAGE SEED = 0.00926840
 MINIMUM SEED = 0.00187768

     5 ITERATION PARAMETERS CALCULATED FROM AVERAGE SEED:

  0.000000E+00 0.689722E+00 0.903727E+00 0.970129E+00 0.990732E+00

    30 ITERATIONS FOR TIME STEP   1 IN STRESS PERIOD    1

 MAXIMUM HEAD CHANGE FOR EACH ITERATION:

    HEAD CHANGE   HEAD CHANGE   HEAD CHANGE   HEAD CHANGE   HEAD CHANGE
  LAYER,ROW,COL LAYER,ROW,COL LAYER,ROW,COL LAYER,ROW,COL LAYER,ROW,COL
 ----------------------------------------------------------------------
      5.187        -1.627        -1.328        -1.137        -1.207    
  (  1, 15,  3) (  1,  8,  4) (  1,  6,  4) (  1,  7,  2) (  1, 10,  7)
    -0.4943       -0.1953       -0.2020       -0.2794       -0.1413    
  (  1, 10, 10) (  1,  9,  9) (  1,  8,  7) (  1,  7,  6) (  1, 10,  7)
    -0.1806       -0.3591E-01   -0.4329E-01   -0.4096E-01   -0.3820E-01
  (  1, 10, 10) (  1, 10, 10) (  1,  6,  5) (  1,  7,  1) (  1,  6,  6)
    -0.3408E-01   -0.8376E-02   -0.6778E-02   -0.9081E-02   -0.4933E-02
  (  1, 10, 10) (  1,  9,  9) (  1,  8,  5) (  1,  6,  1) (  1,  8,  2)
    -0.6385E-02   -0.1282E-02   -0.1621E-02   -0.1532E-02   -0.1430E-02
  (  1, 10, 10) (  1, 10, 10) (  1,  6,  5) (  1,  7,  1) (  1,  6,  6)
    -0.1244E-02   -0.3133E-03   -0.2688E-03   -0.3794E-03   -0.1894E-03
  (  1, 10, 10) (  1,  9,  9) (  1,  8,  5) (  1,  6,  6) (  1,  7,  2)


 OUTPUT CONTROL FOR STRESS PERIOD    1   TIME STEP    1
    PRINT BUDGET
    SAVE BUDGET

            WELLS   PERIOD    1   STEP   1
 WELL      1   LAYER   1   ROW     6   COL     4   RATE    -2.00000    
 WELL      2   LAYER   1   ROW     6   COL     5   RATE    -2.00000    
 WELL      3   LAYER   1   ROW     7   COL     4   RATE    -2.00000    
 WELL      4   LAYER   1   ROW     7   COL     5   RATE    -2.00000    
 WELL      5   LAYER   1   ROW     8   COL     4   RATE    -2.00000    
 WELL      6   LAYER   1   ROW     8   COL     5   RATE    -2.00000    
 WELL      7   LAYER   1   ROW     9   COL     4   RATE    -2.00000    
 WELL      8   LAYER   1   ROW     9   COL     5   RATE    -2.00000    
 WELL      9   LAYER   1   ROW    10   COL     4   RATE    -2.00000    
 WELL     10   LAYER   1   ROW    10   COL     5   RATE    -2.00000    

  HEAD DEP BOUNDS   PERIOD    1   STEP   1
 BOUNDARY      1   LAYER   1   ROW    13   COL     1   RATE   -0.261186    
 BOUNDARY      2   LAYER   1   ROW    14   COL     9   RATE    0.209944    



 STREAM LISTING     PERIOD      1   STEP        1

 LAYER ROW COL. STREAM  RCH.  FLOW INTO     FLOW TO   FLOW OUT OF   OVRLND.     DIRECT     STREAM       STREAM     STREAM     STREAM   STREAMBED  STREAMBED
                SEG.NO.  NO.  STRM. RCH.    AQUIFER    STRM. RCH.    RUNOFF     PRECIP       ET          HEAD       DEPTH      WIDTH   CONDCTNC.   GRADIENT

   1    1    1     1     1    2.5000E+01  1.0782E+00   2.3922E+01  0.000E+00  0.000E+00  0.000E+00  1.09422E+03  1.172E+00  1.295E+01  5.830E-01  6.165E-01
   1    2    2     1     2    2.3922E+01  3.1526E+00   2.0769E+01  0.000E+00  0.000E+00  0.000E+00  1.08920E+03  1.139E+00  1.252E+01  8.762E-01  1.199E+00
   1    3    3     1     3    2.0769E+01  2.8941E+00   1.7875E+01  0.000E+00  0.000E+00  0.000E+00  1.08351E+03  1.089E+00  1.180E+01  7.078E-01  1.363E+00
   1    3    4     1     4    1.7875E+01  2.4577E+00   1.5417E+01  0.000E+00  0.000E+00  0.000E+00  1.07845E+03  1.043E+00  1.095E+01  6.079E-01  1.348E+00
   1    4    5     2     1    5.4174E+00  2.6578E+00   2.7596E+00  0.000E+00  0.000E+00  0.000E+00  1.07234E+03  4.075E-01  1.200E+01  7.800E-01  1.136E+00
   1    5    6     2     2    2.7596E+00  1.9487E+00   8.1090E-01  0.000E+00  0.000E+00  0.000E+00  1.06676E+03  2.478E-01  1.200E+01  6.000E-01  1.083E+00
   1    6    6     2     3    8.1090E-01  8.1090E-01   0.0000E+00  0.000E+00  0.000E+00  0.000E+00  1.06183E+03  3.473E-02  1.200E+01  6.000E-01  1.012E+00
   1    7    6     2     4    0.0000E+00  0.0000E+00   0.0000E+00  0.000E+00  0.000E+00  0.000E+00  1.05708E+03  0.000E+00  1.200E+01  6.000E-01  1.000E+00
   1    8    6     2     5    0.0000E+00  0.0000E+00   0.0000E+00  0.000E+00  0.000E+00  0.000E+00  1.05236E+03  0.000E+00  1.200E+01  6.000E-01  1.000E+00
   1    3    5     3     1    1.0000E+01  2.8252E+00   7.1748E+00  0.000E+00  0.000E+00  0.000E+00  1.07555E+03  1.909E+00  9.636E+00  7.227E-01  1.955E+00
   1    3    6     3     2    7.1748E+00  2.2827E+00   4.8921E+00  0.000E+00  0.000E+00  0.000E+00  1.07264E+03  1.727E+00  8.909E+00  6.682E-01  1.708E+00
   1    3    7     3     3    4.8921E+00  1.1634E+00   3.7286E+00  0.000E+00  0.000E+00  0.000E+00  1.06987E+03  1.555E+00  8.218E+00  5.547E-01  1.049E+00
   1    4    8     3     4    3.7286E+00  1.6872E+00   2.0415E+00  0.000E+00  0.000E+00  0.000E+00  1.06682E+03  1.364E+00  7.455E+00  6.709E-01  1.257E+00
   1    5    8     3     5    2.0415E+00  1.5790E+00   4.6251E-01  0.000E+00  0.000E+00  0.000E+00  1.06362E+03  1.164E+00  6.655E+00  4.991E-01  1.582E+00
   1    6    8     3     6    4.6251E-01  4.6251E-01   0.0000E+00  0.000E+00  0.000E+00  0.000E+00  1.06158E+03  0.000E+00  6.145E+00  1.844E-01  1.518E+00
   1    5   10     4     1    1.0000E+01  9.0525E-01   9.0947E+00  0.000E+00  0.000E+00  0.000E+00  1.07835E+03  6.210E-01  1.000E+01  2.500E-01  1.207E+00
   1    5    9     4     2    9.0947E+00  1.7835E+00   7.3113E+00  0.000E+00  0.000E+00  0.000E+00  1.07148E+03  5.670E-01  1.000E+01  5.000E-01  1.189E+00
   1    6    8     4     3    7.3113E+00  1.2257E+00   6.0855E+00  0.000E+00  0.000E+00  0.000E+00  1.06368E+03  5.021E-01  1.000E+01  3.500E-01  1.167E+00
   1    6    8     5     1    6.0855E+00  1.0332E+00   5.0523E+00  0.000E+00  0.000E+00  0.000E+00  1.05855E+03  5.472E-01  1.065E+01  4.259E-01  8.087E-01
   1    7    7     5     2    5.0523E+00  1.5857E+00   3.4666E+00  0.000E+00  0.000E+00  0.000E+00  1.05400E+03  4.982E-01  9.066E+00  4.533E-01  1.166E+00
   1    8    7     5     3    3.4666E+00  8.8887E-01   2.5778E+00  0.000E+00  0.000E+00  0.000E+00  1.04969E+03  4.418E-01  7.379E+00  2.583E-01  1.147E+00
   1    8    6     5     4    2.5778E+00  5.3423E-01   2.0435E+00  0.000E+00  0.000E+00  0.000E+00  1.04665E+03  4.022E-01  6.281E+00  1.570E-01  1.134E+00
   1    9    6     6     1    2.0435E+00  1.9117E+00   1.3183E-01  0.000E+00  0.000E+00  0.000E+00  1.04291E+03  1.862E-01  1.200E+01  6.000E-01  1.062E+00
   1   10    7     6     2    1.3183E-01  1.3183E-01   0.0000E+00  0.000E+00  0.000E+00  0.000E+00  1.03819E+03  1.181E-02  1.200E+01  6.000E-01  1.004E+00
   1   11    7     6     3    0.0000E+00  0.0000E+00   0.0000E+00  0.000E+00  0.000E+00  0.000E+00  1.03364E+03  0.000E+00  1.200E+01  6.000E-01  1.000E+00
   1   12    7     6     4    0.0000E+00  0.0000E+00   0.0000E+00  0.000E+00  0.000E+00  0.000E+00  1.02909E+03  0.000E+00  1.200E+01  6.000E-01  4.154E-01
   1   13    7     6     5    0.0000E+00 -7.6281E-01   7.6281E-01  0.000E+00  0.000E+00  0.000E+00  1.02601E+03  9.927E-02  1.200E+01  2.400E-01 -1.059E+00
   1   14    9     7     1    1.5000E+02  2.1864E+00   1.4781E+02  0.000E+00  0.000E+00  0.000E+00  1.03987E+03  2.285E+00  5.528E+01  5.592E+00  1.303E-01
   1   13    8     7     2    1.4781E+02  3.2075E+00   1.4461E+02  0.000E+00  0.000E+00  0.000E+00  1.03477E+03  2.271E+00  5.522E+01  6.143E+00  1.740E-01
   1   13    7     7     3    1.4461E+02  2.7204E+00   1.4189E+02  0.000E+00  0.000E+00  0.000E+00  1.02967E+03  2.255E+00  5.515E+01  5.577E+00  1.626E-01
   1   13    6     8     1    1.4265E+02  1.0424E+00   1.4161E+02  0.000E+00  0.000E+00  0.000E+00  1.02464E+03  2.760E+00  4.003E+01  4.079E+00  8.519E-02
   1   13    5     8     2    1.4161E+02 -1.7241E+00   1.4333E+02  0.000E+00  0.000E+00  0.000E+00  1.01839E+03  2.763E+00  4.006E+01  4.083E+00 -1.408E-01
   1   13    4     8     3    1.4333E+02 -3.4966E+00   1.4683E+02  0.000E+00  0.000E+00  0.000E+00  1.01216E+03  2.782E+00  4.034E+01  4.110E+00 -2.836E-01
   1   13    3     8     4    1.4683E+02 -3.8389E+00   1.5067E+02  0.000E+00  0.000E+00  0.000E+00  1.00593E+03  2.808E+00  4.072E+01  4.149E+00 -3.084E-01
   1   13    2     8     5    1.5067E+02 -1.9163E+00   1.5258E+02  0.000E+00  0.000E+00  0.000E+00  9.99703E+02  2.828E+00  4.101E+01  4.179E+00 -1.529E-01
   1   13    1     8     6    1.5258E+02 -4.0732E-01   1.5299E+02  0.000E+00  0.000E+00  0.000E+00  9.94711E+02  2.836E+00  4.113E+01  2.515E+00 -5.399E-02



 UBDSV3 SAVING "           GW ET" ON UNIT  61 AT TIME STEP  1, STRESS PERIOD   1
 UBDSV3 SAVING "    UZF RECHARGE" ON UNIT  61 AT TIME STEP  1, STRESS PERIOD   1
 UBDSV3 SAVING " SURFACE LEAKAGE" ON UNIT  61 AT TIME STEP  1, STRESS PERIOD   1
 UBDSV3 SAVING "       HORT+DUNN" ON UNIT  61 AT TIME STEP  1, STRESS PERIOD   1
 UBDSV3 SAVING "  STORAGE CHANGE" ON UNIT  61 AT TIME STEP  1, STRESS PERIOD   1


UNSATURATED ZONE PACKAGE VOLUMETRIC BUDGET FOR  TIME STEP     1 STRESS PERIOD    1
  ------------------------------------------------------------------------------



     CUMULATIVE VOLUMES      L**3       RATES FOR THIS TIME STEP      L**3/T
     ------------------                 ------------------------

           IN:                                      IN:
           ---                                      ---
        INFILTRATION =    22272300.0000          INFILTRATION =           8.4750

          OUT:                                     OUT:
          ----                                     ----
              UZF ET =       0.0000E+00                UZF ET =       0.0000E+00
        UZF RECHARGE =    22272300.0000          UZF RECHARGE =           8.4750

            IN - OUT =       0.0000E+00              IN - OUT =       0.0000E+00

          STORAGE:                                 STORAGE:
          --------                                 --------
      STORAGE CHANGE =       0.0000E+00        STORAGE CHANGE =       0.0000E+00

 PERCENT DISCREPANCY IS DIFFERENCE BETWEEN IN-OUT MINUS CHANGE IN STORAGE
 DIVIDED BY THE AVERAGE OF IN AND OUT TIMES 100

 PERCENT DISCREPANCY =           0.00     PERCENT DISCREPANCY =           0.00






1
  VOLUMETRIC BUDGET FOR ENTIRE MODEL AT END OF TIME STEP    1, STRESS PERIOD   1
  ------------------------------------------------------------------------------

     CUMULATIVE VOLUMES      L**3       RATES FOR THIS TIME STEP      L**3/T
     ------------------                 ------------------------

           IN:                                      IN:
           ---                                      ---
             STORAGE =           0.0000               STORAGE =           0.0000
       CONSTANT HEAD =           0.0000         CONSTANT HEAD =           0.0000
               WELLS =           0.0000                 WELLS =           0.0000
     HEAD DEP BOUNDS =      551733.8125       HEAD DEP BOUNDS =           0.2099
      STREAM LEAKAGE =   116043808.0000        STREAM LEAKAGE =          44.1567
        UZF RECHARGE =    22272316.0000          UZF RECHARGE =           8.4750
               GW ET =           0.0000                 GW ET =           0.0000
     SURFACE LEAKAGE =           0.0000       SURFACE LEAKAGE =           0.0000

            TOTAL IN =   138867856.0000              TOTAL IN =          52.8417

          OUT:                                     OUT:
          ----                                     ----
             STORAGE =           0.0000               STORAGE =           0.0000
       CONSTANT HEAD =           0.0000         CONSTANT HEAD =           0.0000
               WELLS =    52560000.0000                 WELLS =          20.0000
     HEAD DEP BOUNDS =      686397.8125       HEAD DEP BOUNDS =           0.2612
      STREAM LEAKAGE =    31919658.0000        STREAM LEAKAGE =          12.1460
        UZF RECHARGE =           0.0000          UZF RECHARGE =           0.0000
               GW ET =    53703300.0000                 GW ET =          20.4350
     SURFACE LEAKAGE =           0.0000       SURFACE LEAKAGE =           0.0000

           TOTAL OUT =   138869360.0000             TOTAL OUT =          52.8422

            IN - OUT =       -1504.0000              IN - OUT =      -5.6458E-04

 PERCENT DISCREPANCY =          -0.00     PERCENT DISCREPANCY =          -0.00






         TIME SUMMARY AT END OF TIME STEP    1 IN STRESS PERIOD    1
                    SECONDS     MINUTES      HOURS       DAYS        YEARS
                    -----------------------------------------------------------
   TIME STEP LENGTH 2.62800E+06  43800.      730.00      30.417     8.32763E-02
 STRESS PERIOD TIME 2.62800E+06  43800.      730.00      30.417     8.32763E-02
         TOTAL TIME 2.62800E+06  43800.      730.00      30.417     8.32763E-02
1
1
                            STRESS PERIOD NO.    2, LENGTH =   2628000.    
                            -----------------------------------------------

                              NUMBER OF TIME STEPS =    15

                               MULTIPLIER FOR DELT =     1.100

                            INITIAL TIME STEP SIZE =   82713.07    

 WELL NO.  LAYER   ROW   COL   STRESS RATE         
 --------------------------------------------------
      1      1      6      4      -2.000    
      2      1      6      5      -2.000    
      3      1      7      4      -2.000    
      4      1      7      5      -2.000    
      5      1      8      4      -2.000    
      6      1      8      5      -2.000    
      7      1      9      4      -2.000    
      8      1      9      5      -2.000    
      9      1     10      4      -2.000    
     10      1     10      5      -2.000    

     10 WELLS

 REUSING NON-PARAMETER GHB CELLS FROM LAST STRESS PERIOD

      2 GHB CELLS

 REUSING STREAM SEGMENT DATA FROM LAST STRESS PERIOD



            AREAL INFILTRATION RATE
 READING ON UNIT   19 WITH FORMAT: (10F4.0)            

            1           2           3           4           5           6           7           8           9          10
 ........................................................................................................................
   1   8.0000E-09  1.6000E-08   0.000       0.000       0.000       0.000       0.000       0.000       0.000       0.000    
   2   1.6000E-08  8.0000E-09  1.6000E-08   0.000       0.000      6.4000E-08  6.4000E-08  4.0000E-08   0.000       0.000    
   3    0.000      4.0000E-08  8.0000E-09  8.0000E-09  6.4000E-08  6.4000E-08  4.0000E-08  4.0000E-08   0.000       0.000    
   4   6.4000E-08  4.0000E-08  8.0000E-09  8.0000E-09  8.0000E-09  8.0000E-09  8.0000E-09  8.0000E-09  1.6000E-08   0.000    
   5   6.4000E-08  4.0000E-08  8.0000E-09  8.0000E-09  8.0000E-09  8.0000E-09  8.0000E-09  8.0000E-09  8.0000E-09  8.0000E-09
   6   6.4000E-08  4.0000E-08  4.0000E-08  1.6000E-08  1.6000E-08  8.0000E-09  8.0000E-09  8.0000E-09  8.0000E-09  4.0000E-08
   7   6.4000E-08  4.0000E-08  4.0000E-08  1.6000E-08  1.6000E-08  8.0000E-09  8.0000E-09  1.6000E-08  1.6000E-08   0.000    
   8    0.000      4.0000E-08  4.0000E-08  1.6000E-08  1.6000E-08  8.0000E-09  8.0000E-09  1.6000E-08  4.0000E-08   0.000    
   9    0.000      4.0000E-08  4.0000E-08  1.6000E-08  1.6000E-08  8.0000E-09  8.0000E-09  1.6000E-08  4.0000E-08   0.000    
  10    0.000      4.0000E-08  4.0000E-08  1.6000E-08  1.6000E-08  8.0000E-09  8.0000E-09  1.6000E-08  4.0000E-08  6.4000E-08
  11    0.000      8.0000E-09  8.0000E-09  8.0000E-09  8.0000E-09  8.0000E-09  8.0000E-09  1.6000E-08  4.0000E-08   0.000    
  12   8.0000E-09  8.0000E-09  8.0000E-09  8.0000E-09  8.0000E-09  8.0000E-09  8.0000E-09  8.0000E-09  1.6000E-08   0.000    
  13   8.0000E-09  8.0000E-09  1.6000E-08  1.6000E-08  1.6000E-08  1.6000E-08  1.6000E-08  8.0000E-09  8.0000E-09   0.000    
  14    0.000      1.6000E-08  4.0000E-08  4.0000E-08  4.0000E-08  4.0000E-08  4.0000E-08  1.6000E-08  8.0000E-09   0.000    
  15    0.000       0.000      6.4000E-08  6.4000E-08  6.4000E-08  6.4000E-08   0.000       0.000       0.000       0.000    

                  ET RATE =  5.000000E-08

 USING ET EXTINCTION DEPTH FROM PREVIOUS STRESS PERIOD. CURRENT PERIOD IS:       2

 USING EXTINCTION WATER CONTENT FROM PREVIOUS STRESS PERIOD. CURRENT PERIOD IS:       2
 
 SOLVING FOR HEAD 

     6 ITERATIONS FOR TIME STEP   1 IN STRESS PERIOD    2

 MAXIMUM HEAD CHANGE FOR EACH ITERATION:

    HEAD CHANGE   HEAD CHANGE   HEAD CHANGE   HEAD CHANGE   HEAD CHANGE
  LAYER,ROW,COL LAYER,ROW,COL LAYER,ROW,COL LAYER,ROW,COL LAYER,ROW,COL
 ----------------------------------------------------------------------
     0.8119E-02    0.3250E-02    0.1311E-02    0.5160E-03    0.2046E-03
  (  1,  3,  5) (  1,  3,  5) (  1,  3,  5) (  1,  3,  5) (  1,  3,  5)
     0.1371E-03
  (  1,  3,  6)


 OUTPUT CONTROL WAS SPECIFIED FOR A NONEXISTENT TIME STEP
 OR OUTPUT CONTROL DATA ARE NOT ENTERED IN ASCENDING ORDER
 OUTPUT CONTROL STRESS PERIOD    1   TIME STEP    5
 MODEL STRESS PERIOD    2   TIME STEP    1
 APPLYING THE SPECIFIED OUTPUT CONTROL TO THE CURRENT TIME STEP

 OUTPUT CONTROL FOR STRESS PERIOD    2   TIME STEP    1
    PRINT BUDGET
    SAVE BUDGET

            WELLS   PERIOD    2   STEP   1
 WELL      1   LAYER   1   ROW     6   COL     4   RATE    -2.00000    
 WELL      2   LAYER   1   ROW     6   COL     5   RATE    -2.00000    
 WELL      3   LAYER   1   ROW     7   COL     4   RATE    -2.00000    
 WELL      4   LAYER   1   ROW     7   COL     5   RATE    -2.00000    
 WELL      5   LAYER   1   ROW     8   COL     4   RATE    -2.00000    
 WELL      6   LAYER   1   ROW     8   COL     5   RATE    -2.00000    
 WELL      7   LAYER   1   ROW     9   COL     4   RATE    -2.00000    
 WELL      8   LAYER   1   ROW     9   COL     5   RATE    -2.00000    
 WELL      9   LAYER   1   ROW    10   COL     4   RATE    -2.00000    
 WELL     10   LAYER   1   ROW    10   COL     5   RATE    -2.00000    

  HEAD DEP BOUNDS   PERIOD    2   STEP   1
 BOUNDARY      1   LAYER   1   ROW    13   COL     1   RATE   -0.261274    
 BOUNDARY      2   LAYER   1   ROW    14   COL     9   RATE    0.209783    



 STREAM LISTING     PERIOD      2   STEP        1

 LAYER ROW COL. STREAM  RCH.  FLOW INTO     FLOW TO   FLOW OUT OF   OVRLND.     DIRECT     STREAM       STREAM     STREAM     STREAM   STREAMBED  STREAMBED
                SEG.NO.  NO.  STRM. RCH.    AQUIFER    STRM. RCH.    RUNOFF     PRECIP       ET          HEAD       DEPTH      WIDTH   CONDCTNC.   GRADIENT

   1    1    1     1     1    2.5000E+01  1.0761E+00   2.3924E+01  0.000E+00  0.000E+00  0.000E+00  1.09422E+03  1.172E+00  1.295E+01  5.830E-01  6.153E-01
   1    2    2     1     2    2.3924E+01  3.1479E+00   2.0776E+01  0.000E+00  0.000E+00  0.000E+00  1.08920E+03  1.139E+00  1.252E+01  8.762E-01  1.197E+00
   1    3    3     1     3    2.0776E+01  2.8946E+00   1.7881E+01  0.000E+00  0.000E+00  0.000E+00  1.08351E+03  1.089E+00  1.180E+01  7.079E-01  1.363E+00
   1    3    4     1     4    1.7881E+01  2.4582E+00   1.5423E+01  0.000E+00  0.000E+00  0.000E+00  1.07845E+03  1.043E+00  1.095E+01  6.080E-01  1.348E+00
   1    4    5     2     1    5.4232E+00  2.6581E+00   2.7651E+00  0.000E+00  0.000E+00  0.000E+00  1.07234E+03  4.078E-01  1.200E+01  7.800E-01  1.136E+00
   1    5    6     2     2    2.7651E+00  1.9490E+00   8.1613E-01  0.000E+00  0.000E+00  0.000E+00  1.06676E+03  2.483E-01  1.200E+01  6.000E-01  1.083E+00
   1    6    6     2     3    8.1613E-01  8.1613E-01   0.0000E+00  0.000E+00  0.000E+00  0.000E+00  1.06183E+03  3.486E-02  1.200E+01  6.000E-01  1.012E+00
   1    7    6     2     4    0.0000E+00  0.0000E+00   0.0000E+00  0.000E+00  0.000E+00  0.000E+00  1.05708E+03  0.000E+00  1.200E+01  6.000E-01  1.000E+00
   1    8    6     2     5    0.0000E+00  0.0000E+00   0.0000E+00  0.000E+00  0.000E+00  0.000E+00  1.05236E+03  0.000E+00  1.200E+01  6.000E-01  1.000E+00
   1    3    5     3     1    1.0000E+01  2.8252E+00   7.1748E+00  0.000E+00  0.000E+00  0.000E+00  1.07555E+03  1.909E+00  9.636E+00  7.227E-01  1.955E+00
   1    3    6     3     2    7.1748E+00  2.2742E+00   4.9006E+00  0.000E+00  0.000E+00  0.000E+00  1.07264E+03  1.727E+00  8.909E+00  6.682E-01  1.702E+00
   1    3    7     3     3    4.9006E+00  1.1574E+00   3.7433E+00  0.000E+00  0.000E+00  0.000E+00  1.06987E+03  1.555E+00  8.218E+00  5.547E-01  1.043E+00
   1    4    8     3     4    3.7433E+00  1.6802E+00   2.0630E+00  0.000E+00  0.000E+00  0.000E+00  1.06682E+03  1.364E+00  7.455E+00  6.709E-01  1.252E+00
   1    5    8     3     5    2.0630E+00  1.5790E+00   4.8405E-01  0.000E+00  0.000E+00  0.000E+00  1.06362E+03  1.164E+00  6.655E+00  4.991E-01  1.582E+00
   1    6    8     3     6    4.8405E-01  4.8405E-01   0.0000E+00  0.000E+00  0.000E+00  0.000E+00  1.06158E+03  0.000E+00  6.145E+00  1.844E-01  1.518E+00
   1    5   10     4     1    1.0000E+01  9.0525E-01   9.0947E+00  0.000E+00  0.000E+00  0.000E+00  1.07835E+03  6.210E-01  1.000E+01  2.500E-01  1.207E+00
   1    5    9     4     2    9.0947E+00  1.7835E+00   7.3113E+00  0.000E+00  0.000E+00  0.000E+00  1.07148E+03  5.670E-01  1.000E+01  5.000E-01  1.189E+00
   1    6    8     4     3    7.3113E+00  1.2257E+00   6.0855E+00  0.000E+00  0.000E+00  0.000E+00  1.06368E+03  5.021E-01  1.000E+01  3.500E-01  1.167E+00
   1    6    8     5     1    6.0855E+00  1.0308E+00   5.0548E+00  0.000E+00  0.000E+00  0.000E+00  1.05855E+03  5.472E-01  1.065E+01  4.260E-01  8.066E-01
   1    7    7     5     2    5.0548E+00  1.5862E+00   3.4686E+00  0.000E+00  0.000E+00  0.000E+00  1.05400E+03  4.983E-01  9.068E+00  4.534E-01  1.166E+00
   1    8    7     5     3    3.4686E+00  8.8920E-01   2.5794E+00  0.000E+00  0.000E+00  0.000E+00  1.04969E+03  4.419E-01  7.381E+00  2.583E-01  1.147E+00
   1    8    6     5     4    2.5794E+00  5.3445E-01   2.0449E+00  0.000E+00  0.000E+00  0.000E+00  1.04665E+03  4.023E-01  6.283E+00  1.571E-01  1.134E+00
   1    9    6     6     1    2.0449E+00  1.9118E+00   1.3316E-01  0.000E+00  0.000E+00  0.000E+00  1.04291E+03  1.863E-01  1.200E+01  6.000E-01  1.062E+00
   1   10    7     6     2    1.3316E-01  1.3316E-01   0.0000E+00  0.000E+00  0.000E+00  0.000E+00  1.03819E+03  1.188E-02  1.200E+01  6.000E-01  1.004E+00
   1   11    7     6     3    0.0000E+00  0.0000E+00   0.0000E+00  0.000E+00  0.000E+00  0.000E+00  1.03364E+03  0.000E+00  1.200E+01  6.000E-01  1.000E+00
   1   12    7     6     4    0.0000E+00  0.0000E+00   0.0000E+00  0.000E+00  0.000E+00  0.000E+00  1.02909E+03  0.000E+00  1.200E+01  6.000E-01  4.139E-01
   1   13    7     6     5    0.0000E+00 -7.6348E-01   7.6348E-01  0.000E+00  0.000E+00  0.000E+00  1.02601E+03  9.932E-02  1.200E+01  2.400E-01 -1.060E+00
   1   14    9     7     1    1.5000E+02  2.1630E+00   1.4784E+02  0.000E+00  0.000E+00  0.000E+00  1.03987E+03  2.286E+00  5.528E+01  5.592E+00  1.289E-01
   1   13    8     7     2    1.4784E+02  3.1856E+00   1.4465E+02  0.000E+00  0.000E+00  0.000E+00  1.03477E+03  2.271E+00  5.522E+01  6.143E+00  1.728E-01
   1   13    7     7     3    1.4465E+02  2.7061E+00   1.4195E+02  0.000E+00  0.000E+00  0.000E+00  1.02967E+03  2.255E+00  5.515E+01  5.577E+00  1.617E-01
   1   13    6     8     1    1.4271E+02  1.0330E+00   1.4168E+02  0.000E+00  0.000E+00  0.000E+00  1.02464E+03  2.761E+00  4.003E+01  4.080E+00  8.440E-02
   1   13    5     8     2    1.4168E+02 -1.7267E+00   1.4340E+02  0.000E+00  0.000E+00  0.000E+00  1.01839E+03  2.763E+00  4.007E+01  4.083E+00 -1.410E-01
   1   13    4     8     3    1.4340E+02 -3.4984E+00   1.4690E+02  0.000E+00  0.000E+00  0.000E+00  1.01216E+03  2.782E+00  4.034E+01  4.111E+00 -2.837E-01
   1   13    3     8     4    1.4690E+02 -3.8412E+00   1.5074E+02  0.000E+00  0.000E+00  0.000E+00  1.00593E+03  2.809E+00  4.072E+01  4.150E+00 -3.085E-01
   1   13    2     8     5    1.5074E+02 -1.9298E+00   1.5267E+02  0.000E+00  0.000E+00  0.000E+00  9.99704E+02  2.829E+00  4.102E+01  4.180E+00 -1.539E-01
   1   13    1     8     6    1.5267E+02 -4.1158E-01   1.5308E+02  0.000E+00  0.000E+00  0.000E+00  9.94712E+02  2.837E+00  4.114E+01  2.515E+00 -5.455E-02



 UBDSV3 SAVING "           GW ET" ON UNIT  61 AT TIME STEP  1, STRESS PERIOD   2
 UBDSV3 SAVING "    UZF RECHARGE" ON UNIT  61 AT TIME STEP  1, STRESS PERIOD   2
 UBDSV3 SAVING " SURFACE LEAKAGE" ON UNIT  61 AT TIME STEP  1, STRESS PERIOD   2
 UBDSV3 SAVING "       HORT+DUNN" ON UNIT  61 AT TIME STEP  1, STRESS PERIOD   2
 UBDSV3 SAVING "  STORAGE CHANGE" ON UNIT  61 AT TIME STEP  1, STRESS PERIOD   2


UNSATURATED ZONE PACKAGE VOLUMETRIC BUDGET FOR  TIME STEP     1 STRESS PERIOD    2
  ------------------------------------------------------------------------------



     CUMULATIVE VOLUMES      L**3       RATES FOR THIS TIME STEP      L**3/T
     ------------------                 ------------------------

           IN:                                      IN:
           ---                                      ---
        INFILTRATION =    27880246.0039          INFILTRATION =          67.8000

          OUT:                                     OUT:
          ----                                     ----
              UZF ET =    10303149.8125                UZF ET =         124.5650
        UZF RECHARGE =    23077254.3772          UZF RECHARGE =           9.7319

            IN - OUT =    -5500158.1858              IN - OUT =         -66.4968

          STORAGE:                                 STORAGE:
          --------                                 --------
      STORAGE CHANGE =    -5499040.5799        STORAGE CHANGE =         -66.4833

 PERCENT DISCREPANCY IS DIFFERENCE BETWEEN IN-OUT MINUS CHANGE IN STORAGE
 DIVIDED BY THE AVERAGE OF IN AND OUT TIMES 100

 PERCENT DISCREPANCY =          -0.00     PERCENT DISCREPANCY =          -0.01






1
  VOLUMETRIC BUDGET FOR ENTIRE MODEL AT END OF TIME STEP    1, STRESS PERIOD   2
  ------------------------------------------------------------------------------

     CUMULATIVE VOLUMES      L**3       RATES FOR THIS TIME STEP      L**3/T
     ------------------                 ------------------------

           IN:                                      IN:
           ---                                      ---
             STORAGE =        2892.7361               STORAGE =       3.4973E-02
       CONSTANT HEAD =           0.0000         CONSTANT HEAD =           0.0000
               WELLS =           0.0000                 WELLS =           0.0000
     HEAD DEP BOUNDS =      569085.6250       HEAD DEP BOUNDS =           0.2098
      STREAM LEAKAGE =   119690440.0000        STREAM LEAKAGE =          44.0877
        UZF RECHARGE =    23077270.0000          UZF RECHARGE =           9.7319
               GW ET =           0.0000                 GW ET =           0.0000
     SURFACE LEAKAGE =           0.0000       SURFACE LEAKAGE =           0.0000

            TOTAL IN =   143339680.0000              TOTAL IN =          54.0644

          OUT:                                     OUT:
          ----                                     ----
             STORAGE =      666433.0000               STORAGE =           8.0572
       CONSTANT HEAD =           0.0000         CONSTANT HEAD =           0.0000
               WELLS =    54214260.0000                 WELLS =          20.0000
     HEAD DEP BOUNDS =      708008.5625       HEAD DEP BOUNDS =           0.2613
      STREAM LEAKAGE =    32926374.0000        STREAM LEAKAGE =          12.1712
        UZF RECHARGE =           0.0000          UZF RECHARGE =           0.0000
               GW ET =    54823344.0000                 GW ET =          13.5413
     SURFACE LEAKAGE =           0.0000       SURFACE LEAKAGE =           0.0000

           TOTAL OUT =   143338416.0000             TOTAL OUT =          54.0309

            IN - OUT =        1264.0000              IN - OUT =       3.3443E-02

 PERCENT DISCREPANCY =           0.00     PERCENT DISCREPANCY =           0.06






         TIME SUMMARY AT END OF TIME STEP    1 IN STRESS PERIOD    2
                    SECONDS     MINUTES      HOURS       DAYS        YEARS
                    -----------------------------------------------------------
   TIME STEP LENGTH  82713.      1378.6      22.976     0.95733     2.62102E-03
 STRESS PERIOD TIME  82713.      1378.6      22.976     0.95733     2.62102E-03
         TOTAL TIME 2.71071E+06  45179.      752.98      31.374     8.58973E-02
1
 
 SOLVING FOR HEAD 
     6 ITERATIONS FOR TIME STEP   2 IN STRESS PERIOD    2

 MAXIMUM HEAD CHANGE FOR EACH ITERATION:

    HEAD CHANGE   HEAD CHANGE   HEAD CHANGE   HEAD CHANGE   HEAD CHANGE
  LAYER,ROW,COL LAYER,ROW,COL LAYER,ROW,COL LAYER,ROW,COL LAYER,ROW,COL
 ----------------------------------------------------------------------
     0.8656E-02    0.3407E-02    0.1351E-02    0.5489E-03    0.2023E-03
  (  1,  3,  5) (  1,  3,  5) (  1,  3,  5) (  1,  3,  5) (  1,  3,  6)
     0.8860E-04
  (  1,  3,  5)


 OUTPUT CONTROL WAS SPECIFIED FOR A NONEXISTENT TIME STEP
 OR OUTPUT CONTROL DATA ARE NOT ENTERED IN ASCENDING ORDER
 OUTPUT CONTROL STRESS PERIOD    1   TIME STEP   10
 MODEL STRESS PERIOD    2   TIME STEP    2
 APPLYING THE SPECIFIED OUTPUT CONTROL TO THE CURRENT TIME STEP

 OUTPUT CONTROL FOR STRESS PERIOD    2   TIME STEP    2
    PRINT BUDGET
    SAVE BUDGET

            WELLS   PERIOD    2   STEP   2
 WELL      1   LAYER   1   ROW     6   COL     4   RATE    -2.00000    
 WELL      2   LAYER   1   ROW     6   COL     5   RATE    -2.00000    
 WELL      3   LAYER   1   ROW     7   COL     4   RATE    -2.00000    
 WELL      4   LAYER   1   ROW     7   COL     5   RATE    -2.00000    
 WELL      5   LAYER   1   ROW     8   COL     4   RATE    -2.00000    
 WELL      6   LAYER   1   ROW     8   COL     5   RATE    -2.00000    
 WELL      7   LAYER   1   ROW     9   COL     4   RATE    -2.00000    
 WELL      8   LAYER   1   ROW     9   COL     5   RATE    -2.00000    
 WELL      9   LAYER   1   ROW    10   COL     4   RATE    -2.00000    
 WELL     10   LAYER   1   ROW    10   COL     5   RATE    -2.00000    

  HEAD DEP BOUNDS   PERIOD    2   STEP   2
 BOUNDARY      1   LAYER   1   ROW    13   COL     1   RATE   -0.261362    
 BOUNDARY      2   LAYER   1   ROW    14   COL     9   RATE    0.209627    



 STREAM LISTING     PERIOD      2   STEP        2

 LAYER ROW COL. STREAM  RCH.  FLOW INTO     FLOW TO   FLOW OUT OF   OVRLND.     DIRECT     STREAM       STREAM     STREAM     STREAM   STREAMBED  STREAMBED
                SEG.NO.  NO.  STRM. RCH.    AQUIFER    STRM. RCH.    RUNOFF     PRECIP       ET          HEAD       DEPTH      WIDTH   CONDCTNC.   GRADIENT

   1    1    1     1     1    2.5000E+01  1.0738E+00   2.3926E+01  0.000E+00  0.000E+00  0.000E+00  1.09422E+03  1.172E+00  1.296E+01  5.830E-01  6.140E-01
   1    2    2     1     2    2.3926E+01  3.1430E+00   2.0783E+01  0.000E+00  0.000E+00  0.000E+00  1.08920E+03  1.139E+00  1.252E+01  8.763E-01  1.196E+00
   1    3    3     1     3    2.0783E+01  2.8952E+00   1.7888E+01  0.000E+00  0.000E+00  0.000E+00  1.08351E+03  1.089E+00  1.180E+01  7.080E-01  1.363E+00
   1    3    4     1     4    1.7888E+01  2.4587E+00   1.5429E+01  0.000E+00  0.000E+00  0.000E+00  1.07845E+03  1.043E+00  1.096E+01  6.081E-01  1.348E+00
   1    4    5     2     1    5.4292E+00  2.6584E+00   2.7709E+00  0.000E+00  0.000E+00  0.000E+00  1.07234E+03  4.081E-01  1.200E+01  7.800E-01  1.136E+00
   1    5    6     2     2    2.7709E+00  1.9492E+00   8.2164E-01  0.000E+00  0.000E+00  0.000E+00  1.06676E+03  2.487E-01  1.200E+01  6.000E-01  1.083E+00
   1    6    6     2     3    8.2164E-01  8.2164E-01   0.0000E+00  0.000E+00  0.000E+00  0.000E+00  1.06183E+03  3.500E-02  1.200E+01  6.000E-01  1.012E+00
   1    7    6     2     4    0.0000E+00  0.0000E+00   0.0000E+00  0.000E+00  0.000E+00  0.000E+00  1.05708E+03  0.000E+00  1.200E+01  6.000E-01  1.000E+00
   1    8    6     2     5    0.0000E+00  0.0000E+00   0.0000E+00  0.000E+00  0.000E+00  0.000E+00  1.05236E+03  0.000E+00  1.200E+01  6.000E-01  1.000E+00
   1    3    5     3     1    1.0000E+01  2.8252E+00   7.1748E+00  0.000E+00  0.000E+00  0.000E+00  1.07555E+03  1.909E+00  9.636E+00  7.227E-01  1.955E+00
   1    3    6     3     2    7.1748E+00  2.2654E+00   4.9094E+00  0.000E+00  0.000E+00  0.000E+00  1.07264E+03  1.727E+00  8.909E+00  6.682E-01  1.695E+00
   1    3    7     3     3    4.9094E+00  1.1511E+00   3.7583E+00  0.000E+00  0.000E+00  0.000E+00  1.06987E+03  1.555E+00  8.218E+00  5.547E-01  1.038E+00
   1    4    8     3     4    3.7583E+00  1.6729E+00   2.0854E+00  0.000E+00  0.000E+00  0.000E+00  1.06682E+03  1.364E+00  7.455E+00  6.709E-01  1.247E+00
   1    5    8     3     5    2.0854E+00  1.5790E+00   5.0640E-01  0.000E+00  0.000E+00  0.000E+00  1.06362E+03  1.164E+00  6.655E+00  4.991E-01  1.582E+00
   1    6    8     3     6    5.0640E-01  5.0640E-01   0.0000E+00  0.000E+00  0.000E+00  0.000E+00  1.06158E+03  0.000E+00  6.145E+00  1.844E-01  1.518E+00
   1    5   10     4     1    1.0000E+01  9.0525E-01   9.0947E+00  0.000E+00  0.000E+00  0.000E+00  1.07835E+03  6.210E-01  1.000E+01  2.500E-01  1.207E+00
   1    5    9     4     2    9.0947E+00  1.7835E+00   7.3113E+00  0.000E+00  0.000E+00  0.000E+00  1.07148E+03  5.670E-01  1.000E+01  5.000E-01  1.189E+00
   1    6    8     4     3    7.3113E+00  1.2257E+00   6.0855E+00  0.000E+00  0.000E+00  0.000E+00  1.06368E+03  5.021E-01  1.000E+01  3.500E-01  1.167E+00
   1    6    8     5     1    6.0855E+00  1.0280E+00   5.0576E+00  0.000E+00  0.000E+00  0.000E+00  1.05855E+03  5.473E-01  1.065E+01  4.260E-01  8.043E-01
   1    7    7     5     2    5.0576E+00  1.5868E+00   3.4708E+00  0.000E+00  0.000E+00  0.000E+00  1.05400E+03  4.984E-01  9.072E+00  4.536E-01  1.166E+00
   1    8    7     5     3    3.4708E+00  8.8957E-01   2.5812E+00  0.000E+00  0.000E+00  0.000E+00  1.04969E+03  4.420E-01  7.384E+00  2.584E-01  1.147E+00
   1    8    6     5     4    2.5812E+00  5.3469E-01   2.0465E+00  0.000E+00  0.000E+00  0.000E+00  1.04665E+03  4.024E-01  6.286E+00  1.572E-01  1.134E+00
   1    9    6     6     1    2.0465E+00  1.9119E+00   1.3465E-01  0.000E+00  0.000E+00  0.000E+00  1.04291E+03  1.864E-01  1.200E+01  6.000E-01  1.062E+00
   1   10    7     6     2    1.3465E-01  1.3465E-01   0.0000E+00  0.000E+00  0.000E+00  0.000E+00  1.03819E+03  1.196E-02  1.200E+01  6.000E-01  1.004E+00
   1   11    7     6     3    0.0000E+00  0.0000E+00   0.0000E+00  0.000E+00  0.000E+00  0.000E+00  1.03364E+03  0.000E+00  1.200E+01  6.000E-01  1.000E+00
   1   12    7     6     4    0.0000E+00  0.0000E+00   0.0000E+00  0.000E+00  0.000E+00  0.000E+00  1.02909E+03  0.000E+00  1.200E+01  6.000E-01  4.123E-01
   1   13    7     6     5    0.0000E+00 -7.6418E-01   7.6418E-01  0.000E+00  0.000E+00  0.000E+00  1.02601E+03  9.937E-02  1.200E+01  2.400E-01 -1.061E+00
   1   14    9     7     1    1.5000E+02  2.1404E+00   1.4786E+02  0.000E+00  0.000E+00  0.000E+00  1.03987E+03  2.286E+00  5.529E+01  5.592E+00  1.276E-01
   1   13    8     7     2    1.4786E+02  3.1651E+00   1.4469E+02  0.000E+00  0.000E+00  0.000E+00  1.03477E+03  2.271E+00  5.522E+01  6.143E+00  1.717E-01
   1   13    7     7     3    1.4469E+02  2.6913E+00   1.4200E+02  0.000E+00  0.000E+00  0.000E+00  1.02968E+03  2.256E+00  5.515E+01  5.577E+00  1.608E-01
   1   13    6     8     1    1.4277E+02  1.0235E+00   1.4174E+02  0.000E+00  0.000E+00  0.000E+00  1.02464E+03  2.761E+00  4.004E+01  4.080E+00  8.362E-02
   1   13    5     8     2    1.4174E+02 -1.7302E+00   1.4347E+02  0.000E+00  0.000E+00  0.000E+00  1.01839E+03  2.764E+00  4.008E+01  4.084E+00 -1.412E-01
   1   13    4     8     3    1.4347E+02 -3.5002E+00   1.4697E+02  0.000E+00  0.000E+00  0.000E+00  1.01216E+03  2.783E+00  4.035E+01  4.112E+00 -2.837E-01
   1   13    3     8     4    1.4697E+02 -3.8441E+00   1.5082E+02  0.000E+00  0.000E+00  0.000E+00  1.00593E+03  2.809E+00  4.073E+01  4.151E+00 -3.087E-01
   1   13    2     8     5    1.5082E+02 -1.9439E+00   1.5276E+02  0.000E+00  0.000E+00  0.000E+00  9.99704E+02  2.829E+00  4.103E+01  4.181E+00 -1.550E-01
   1   13    1     8     6    1.5276E+02 -4.1591E-01   1.5318E+02  0.000E+00  0.000E+00  0.000E+00  9.94713E+02  2.838E+00  4.115E+01  2.516E+00 -5.511E-02



 UBDSV3 SAVING "           GW ET" ON UNIT  61 AT TIME STEP  2, STRESS PERIOD   2
 UBDSV3 SAVING "    UZF RECHARGE" ON UNIT  61 AT TIME STEP  2, STRESS PERIOD   2
 UBDSV3 SAVING " SURFACE LEAKAGE" ON UNIT  61 AT TIME STEP  2, STRESS PERIOD   2
 UBDSV3 SAVING "       HORT+DUNN" ON UNIT  61 AT TIME STEP  2, STRESS PERIOD   2
 UBDSV3 SAVING "  STORAGE CHANGE" ON UNIT  61 AT TIME STEP  2, STRESS PERIOD   2


UNSATURATED ZONE PACKAGE VOLUMETRIC BUDGET FOR  TIME STEP     2 STRESS PERIOD    2
  ------------------------------------------------------------------------------



     CUMULATIVE VOLUMES      L**3       RATES FOR THIS TIME STEP      L**3/T
     ------------------                 ------------------------

           IN:                                      IN:
           ---                                      ---
        INFILTRATION =    34048987.2402          INFILTRATION =          67.8000

          OUT:                                     OUT:
          ----                                     ----
              UZF ET =    21635385.6750                UZF ET =         124.5514
        UZF RECHARGE =    23952233.4231          UZF RECHARGE =           9.6168

            IN - OUT =   -11538631.8579              IN - OUT =         -66.3682

          STORAGE:                                 STORAGE:
          --------                                 --------
      STORAGE CHANGE =   -11536211.9910        STORAGE CHANGE =         -66.3539

 PERCENT DISCREPANCY IS DIFFERENCE BETWEEN IN-OUT MINUS CHANGE IN STORAGE
 DIVIDED BY THE AVERAGE OF IN AND OUT TIMES 100

 PERCENT DISCREPANCY =          -0.00     PERCENT DISCREPANCY =          -0.01






1
  VOLUMETRIC BUDGET FOR ENTIRE MODEL AT END OF TIME STEP    2, STRESS PERIOD   2
  ------------------------------------------------------------------------------

     CUMULATIVE VOLUMES      L**3       RATES FOR THIS TIME STEP      L**3/T
     ------------------                 ------------------------

           IN:                                      IN:
           ---                                      ---
             STORAGE =        3037.1206               STORAGE =       1.5869E-03
       CONSTANT HEAD =           0.0000         CONSTANT HEAD =           0.0000
               WELLS =           0.0000                 WELLS =           0.0000
     HEAD DEP BOUNDS =      588158.4375       HEAD DEP BOUNDS =           0.2096
      STREAM LEAKAGE =   123695608.0000        STREAM LEAKAGE =          44.0204
        UZF RECHARGE =    23952250.0000          UZF RECHARGE =           9.6168
               GW ET =           0.0000                 GW ET =           0.0000
     SURFACE LEAKAGE =           0.0000       SURFACE LEAKAGE =           0.0000

            TOTAL IN =   148239056.0000              TOTAL IN =          53.8484

          OUT:                                     OUT:
          ----                                     ----
             STORAGE =     1378562.2500               STORAGE =           7.8269
       CONSTANT HEAD =           0.0000         CONSTANT HEAD =           0.0000
               WELLS =    56033948.0000                 WELLS =          20.0000
     HEAD DEP BOUNDS =      731788.4375       HEAD DEP BOUNDS =           0.2614
      STREAM LEAKAGE =    34036248.0000        STREAM LEAKAGE =          12.1985
        UZF RECHARGE =           0.0000          UZF RECHARGE =           0.0000
               GW ET =    56056632.0000                 GW ET =          13.5549
     SURFACE LEAKAGE =           0.0000       SURFACE LEAKAGE =           0.0000

           TOTAL OUT =   148237184.0000             TOTAL OUT =          53.8418

            IN - OUT =        1872.0000              IN - OUT =       6.6338E-03

 PERCENT DISCREPANCY =           0.00     PERCENT DISCREPANCY =           0.01






         TIME SUMMARY AT END OF TIME STEP    2 IN STRESS PERIOD    2
                    SECONDS     MINUTES      HOURS       DAYS        YEARS
                    -----------------------------------------------------------
   TIME STEP LENGTH  90984.      1516.4      25.273      1.0531     2.88312E-03
 STRESS PERIOD TIME 1.73697E+05  2895.0      48.249      2.0104     5.50414E-03
         TOTAL TIME 2.80170E+06  46695.      778.25      32.427     8.87804E-02
1
 
 SOLVING FOR HEAD 
     6 ITERATIONS FOR TIME STEP   3 IN STRESS PERIOD    2

 MAXIMUM HEAD CHANGE FOR EACH ITERATION:

    HEAD CHANGE   HEAD CHANGE   HEAD CHANGE   HEAD CHANGE   HEAD CHANGE
  LAYER,ROW,COL LAYER,ROW,COL LAYER,ROW,COL LAYER,ROW,COL LAYER,ROW,COL
 ----------------------------------------------------------------------
     0.9214E-02    0.3567E-02    0.1388E-02    0.5228E-03    0.2268E-03
  (  1, 12,  8) (  1,  3,  5) (  1,  3,  5) (  1,  3,  5) (  1,  3,  5)
     0.7077E-04
  (  1, 12,  8)


 OUTPUT CONTROL WAS SPECIFIED FOR A NONEXISTENT TIME STEP
 OR OUTPUT CONTROL DATA ARE NOT ENTERED IN ASCENDING ORDER
 OUTPUT CONTROL STRESS PERIOD    1   TIME STEP   15
 MODEL STRESS PERIOD    2   TIME STEP    3
 APPLYING THE SPECIFIED OUTPUT CONTROL TO THE CURRENT TIME STEP

 OUTPUT CONTROL FOR STRESS PERIOD    2   TIME STEP    3
    PRINT BUDGET
    PRINT HEAD FOR ALL LAYERS
    SAVE HEAD FOR ALL LAYERS
    SAVE BUDGET

            WELLS   PERIOD    2   STEP   3
 WELL      1   LAYER   1   ROW     6   COL     4   RATE    -2.00000    
 WELL      2   LAYER   1   ROW     6   COL     5   RATE    -2.00000    
 WELL      3   LAYER   1   ROW     7   COL     4   RATE    -2.00000    
 WELL      4   LAYER   1   ROW     7   COL     5   RATE    -2.00000    
 WELL      5   LAYER   1   ROW     8   COL     4   RATE    -2.00000    
 WELL      6   LAYER   1   ROW     8   COL     5   RATE    -2.00000    
 WELL      7   LAYER   1   ROW     9   COL     4   RATE    -2.00000    
 WELL      8   LAYER   1   ROW     9   COL     5   RATE    -2.00000    
 WELL      9   LAYER   1   ROW    10   COL     4   RATE    -2.00000    
 WELL     10   LAYER   1   ROW    10   COL     5   RATE    -2.00000    

  HEAD DEP BOUNDS   PERIOD    2   STEP   3
 BOUNDARY      1   LAYER   1   ROW    13   COL     1   RATE   -0.261453    
 BOUNDARY      2   LAYER   1   ROW    14   COL     9   RATE    0.209475    



 STREAM LISTING     PERIOD      2   STEP        3

 LAYER ROW COL. STREAM  RCH.  FLOW INTO     FLOW TO   FLOW OUT OF   OVRLND.     DIRECT     STREAM       STREAM     STREAM     STREAM   STREAMBED  STREAMBED
                SEG.NO.  NO.  STRM. RCH.    AQUIFER    STRM. RCH.    RUNOFF     PRECIP       ET          HEAD       DEPTH      WIDTH   CONDCTNC.   GRADIENT

   1    1    1     1     1    2.5000E+01  1.0714E+00   2.3929E+01  0.000E+00  0.000E+00  0.000E+00  1.09422E+03  1.172E+00  1.296E+01  5.830E-01  6.126E-01
   1    2    2     1     2    2.3929E+01  3.1378E+00   2.0791E+01  0.000E+00  0.000E+00  0.000E+00  1.08920E+03  1.139E+00  1.252E+01  8.764E-01  1.193E+00
   1    3    3     1     3    2.0791E+01  2.8958E+00   1.7895E+01  0.000E+00  0.000E+00  0.000E+00  1.08351E+03  1.089E+00  1.180E+01  7.081E-01  1.363E+00
   1    3    4     1     4    1.7895E+01  2.4593E+00   1.5436E+01  0.000E+00  0.000E+00  0.000E+00  1.07845E+03  1.043E+00  1.096E+01  6.082E-01  1.348E+00
   1    4    5     2     1    5.4357E+00  2.6586E+00   2.7770E+00  0.000E+00  0.000E+00  0.000E+00  1.07234E+03  4.085E-01  1.200E+01  7.800E-01  1.136E+00
   1    5    6     2     2    2.7770E+00  1.9495E+00   8.2746E-01  0.000E+00  0.000E+00  0.000E+00  1.06676E+03  2.492E-01  1.200E+01  6.000E-01  1.083E+00
   1    6    6     2     3    8.2746E-01  8.2746E-01   0.0000E+00  0.000E+00  0.000E+00  0.000E+00  1.06183E+03  3.515E-02  1.200E+01  6.000E-01  1.012E+00
   1    7    6     2     4    0.0000E+00  0.0000E+00   0.0000E+00  0.000E+00  0.000E+00  0.000E+00  1.05708E+03  0.000E+00  1.200E+01  6.000E-01  1.000E+00
   1    8    6     2     5    0.0000E+00  0.0000E+00   0.0000E+00  0.000E+00  0.000E+00  0.000E+00  1.05236E+03  0.000E+00  1.200E+01  6.000E-01  1.000E+00
   1    3    5     3     1    1.0000E+01  2.8252E+00   7.1748E+00  0.000E+00  0.000E+00  0.000E+00  1.07555E+03  1.909E+00  9.636E+00  7.227E-01  1.955E+00
   1    3    6     3     2    7.1748E+00  2.2567E+00   4.9181E+00  0.000E+00  0.000E+00  0.000E+00  1.07264E+03  1.727E+00  8.909E+00  6.682E-01  1.689E+00
   1    3    7     3     3    4.9181E+00  1.1445E+00   3.7735E+00  0.000E+00  0.000E+00  0.000E+00  1.06987E+03  1.555E+00  8.218E+00  5.547E-01  1.032E+00
   1    4    8     3     4    3.7735E+00  1.6654E+00   2.1081E+00  0.000E+00  0.000E+00  0.000E+00  1.06682E+03  1.364E+00  7.455E+00  6.709E-01  1.241E+00
   1    5    8     3     5    2.1081E+00  1.5790E+00   5.2916E-01  0.000E+00  0.000E+00  0.000E+00  1.06362E+03  1.164E+00  6.655E+00  4.991E-01  1.582E+00
   1    6    8     3     6    5.2916E-01  5.2916E-01   0.0000E+00  0.000E+00  0.000E+00  0.000E+00  1.06158E+03  0.000E+00  6.145E+00  1.844E-01  1.518E+00
   1    5   10     4     1    1.0000E+01  9.0525E-01   9.0947E+00  0.000E+00  0.000E+00  0.000E+00  1.07835E+03  6.210E-01  1.000E+01  2.500E-01  1.207E+00
   1    5    9     4     2    9.0947E+00  1.7835E+00   7.3113E+00  0.000E+00  0.000E+00  0.000E+00  1.07148E+03  5.670E-01  1.000E+01  5.000E-01  1.189E+00
   1    6    8     4     3    7.3113E+00  1.2257E+00   6.0855E+00  0.000E+00  0.000E+00  0.000E+00  1.06368E+03  5.021E-01  1.000E+01  3.500E-01  1.167E+00
   1    6    8     5     1    6.0855E+00  1.0250E+00   5.0606E+00  0.000E+00  0.000E+00  0.000E+00  1.05855E+03  5.473E-01  1.065E+01  4.261E-01  8.019E-01
   1    7    7     5     2    5.0606E+00  1.5874E+00   3.4731E+00  0.000E+00  0.000E+00  0.000E+00  1.05400E+03  4.985E-01  9.075E+00  4.538E-01  1.166E+00
   1    8    7     5     3    3.4731E+00  8.8998E-01   2.5831E+00  0.000E+00  0.000E+00  0.000E+00  1.04969E+03  4.421E-01  7.387E+00  2.586E-01  1.147E+00
   1    8    6     5     4    2.5831E+00  5.3497E-01   2.0482E+00  0.000E+00  0.000E+00  0.000E+00  1.04665E+03  4.025E-01  6.289E+00  1.572E-01  1.134E+00
   1    9    6     6     1    2.0482E+00  1.9120E+00   1.3619E-01  0.000E+00  0.000E+00  0.000E+00  1.04291E+03  1.866E-01  1.200E+01  6.000E-01  1.062E+00
   1   10    7     6     2    1.3619E-01  1.3619E-01   0.0000E+00  0.000E+00  0.000E+00  0.000E+00  1.03819E+03  1.204E-02  1.200E+01  6.000E-01  1.004E+00
   1   11    7     6     3    0.0000E+00  0.0000E+00   0.0000E+00  0.000E+00  0.000E+00  0.000E+00  1.03364E+03  0.000E+00  1.200E+01  6.000E-01  1.000E+00
   1   12    7     6     4    0.0000E+00  0.0000E+00   0.0000E+00  0.000E+00  0.000E+00  0.000E+00  1.02909E+03  0.000E+00  1.200E+01  6.000E-01  4.106E-01
   1   13    7     6     5    0.0000E+00 -7.6482E-01   7.6482E-01  0.000E+00  0.000E+00  0.000E+00  1.02601E+03  9.942E-02  1.200E+01  2.400E-01 -1.062E+00
   1   14    9     7     1    1.5000E+02  2.1183E+00   1.4788E+02  0.000E+00  0.000E+00  0.000E+00  1.03987E+03  2.286E+00  5.529E+01  5.592E+00  1.263E-01
   1   13    8     7     2    1.4788E+02  3.1453E+00   1.4474E+02  0.000E+00  0.000E+00  0.000E+00  1.03477E+03  2.272E+00  5.522E+01  6.144E+00  1.707E-01
   1   13    7     7     3    1.4474E+02  2.6775E+00   1.4206E+02  0.000E+00  0.000E+00  0.000E+00  1.02968E+03  2.256E+00  5.515E+01  5.577E+00  1.600E-01
   1   13    6     8     1    1.4282E+02  1.0140E+00   1.4181E+02  0.000E+00  0.000E+00  0.000E+00  1.02464E+03  2.762E+00  4.005E+01  4.081E+00  8.282E-02
   1   13    5     8     2    1.4181E+02 -1.7337E+00   1.4354E+02  0.000E+00  0.000E+00  0.000E+00  1.01839E+03  2.764E+00  4.008E+01  4.085E+00 -1.415E-01
   1   13    4     8     3    1.4354E+02 -3.5026E+00   1.4705E+02  0.000E+00  0.000E+00  0.000E+00  1.01216E+03  2.783E+00  4.036E+01  4.113E+00 -2.839E-01
   1   13    3     8     4    1.4705E+02 -3.8466E+00   1.5089E+02  0.000E+00  0.000E+00  0.000E+00  1.00593E+03  2.810E+00  4.074E+01  4.151E+00 -3.089E-01
   1   13    2     8     5    1.5089E+02 -1.9584E+00   1.5285E+02  0.000E+00  0.000E+00  0.000E+00  9.99705E+02  2.830E+00  4.103E+01  4.182E+00 -1.561E-01
   1   13    1     8     6    1.5285E+02 -4.2040E-01   1.5327E+02  0.000E+00  0.000E+00  0.000E+00  9.94713E+02  2.838E+00  4.115E+01  2.516E+00 -5.569E-02



 UBDSV3 SAVING "           GW ET" ON UNIT  61 AT TIME STEP  3, STRESS PERIOD   2
 UBDSV3 SAVING "    UZF RECHARGE" ON UNIT  61 AT TIME STEP  3, STRESS PERIOD   2
 UBDSV3 SAVING " SURFACE LEAKAGE" ON UNIT  61 AT TIME STEP  3, STRESS PERIOD   2
 UBDSV3 SAVING "       HORT+DUNN" ON UNIT  61 AT TIME STEP  3, STRESS PERIOD   2
 UBDSV3 SAVING "  STORAGE CHANGE" ON UNIT  61 AT TIME STEP  3, STRESS PERIOD   2


UNSATURATED ZONE PACKAGE VOLUMETRIC BUDGET FOR  TIME STEP     3 STRESS PERIOD    2
  ------------------------------------------------------------------------------



     CUMULATIVE VOLUMES      L**3       RATES FOR THIS TIME STEP      L**3/T
     ------------------                 ------------------------

           IN:                                      IN:
           ---                                      ---
        INFILTRATION =    40834602.5391          INFILTRATION =          67.8000

          OUT:                                     OUT:
          ----                                     ----
              UZF ET =    34099412.7986                UZF ET =         124.5371
        UZF RECHARGE =    24904557.9082          UZF RECHARGE =           9.5154

            IN - OUT =   -18169368.1677              IN - OUT =         -66.2525

          STORAGE:                                 STORAGE:
          --------                                 --------
      STORAGE CHANGE =   -18165443.0944        STORAGE CHANGE =         -66.2375

 PERCENT DISCREPANCY IS DIFFERENCE BETWEEN IN-OUT MINUS CHANGE IN STORAGE
 DIVIDED BY THE AVERAGE OF IN AND OUT TIMES 100

 PERCENT DISCREPANCY =          -0.00     PERCENT DISCREPANCY =          -0.01






1
              HEAD IN LAYER   1 AT END OF TIME STEP   3 IN STRESS PERIOD    2
  ---------------------------------------------------------------------------

           1       2       3       4       5       6       7       8       9      10
 ...................................................................................
   1  1092.38 1088.63 6999.00 6999.00 6999.00 6999.00 6999.00 6999.00 6999.00 6999.00
   2  1089.24 1085.62 1078.96 6999.00 6999.00 1071.60 1070.86 1070.38 6999.00 6999.00
   3  6999.00 1077.28 1074.00 1069.65 1070.00 1069.26 1067.81 1067.80 6999.00 6999.00
   4  1067.82 1068.30 1066.38 1062.66 1061.49 1060.29 1061.15 1064.34 1063.70 6999.00
   5  1063.67 1061.22 1058.40 1056.12 1055.88 1056.67 1056.75 1059.02 1062.67 1065.22
   6  1058.99 1055.26 1051.82 1049.36 1049.78 1051.90 1053.54 1056.14 1059.18 1063.61
   7  1055.33 1049.58 1045.87 1043.49 1044.29 1046.82 1049.65 1052.33 1054.05 6999.00
   8  6999.00 1042.24 1039.80 1037.85 1038.93 1041.67 1043.84 1046.89 1049.11 6999.00
   9  6999.00 1035.30 1033.84 1032.56 1033.95 1036.84 1038.03 1040.43 1043.70 6999.00
  10  6999.00 1028.29 1027.98 1027.92 1029.55 1031.98 1033.33 1035.83 1039.94 1044.37
  11  6999.00 1019.58 1020.94 1024.00 1026.08 1028.32 1029.88 1032.57 1036.22 6999.00
  12  1001.15 1008.78 1013.89 1018.58 1022.19 1025.44 1027.86 1030.81 1034.76 6999.00
  13   994.88 1000.17 1006.86 1013.01 1018.81 1024.39 1029.20 1034.26 1036.35 6999.00
  14  6999.00 1005.81 1011.47 1016.19 1021.22 1026.06 1030.48 1035.34 1039.49 6999.00
  15  6999.00 6999.00 1018.83 1021.82 1025.56 1028.54 6999.00 6999.00 6999.00 6999.00

 HEAD WILL BE SAVED ON UNIT   58 AT END OF TIME STEP    3, STRESS PERIOD    2
1
  VOLUMETRIC BUDGET FOR ENTIRE MODEL AT END OF TIME STEP    3, STRESS PERIOD   2
  ------------------------------------------------------------------------------

     CUMULATIVE VOLUMES      L**3       RATES FOR THIS TIME STEP      L**3/T
     ------------------                 ------------------------

           IN:                                      IN:
           ---                                      ---
             STORAGE =        3647.9775               STORAGE =       6.1035E-03
       CONSTANT HEAD =           0.0000         CONSTANT HEAD =           0.0000
               WELLS =           0.0000                 WELLS =           0.0000
     HEAD DEP BOUNDS =      609123.2500       HEAD DEP BOUNDS =           0.2095
      STREAM LEAKAGE =   128094760.0000        STREAM LEAKAGE =          43.9551
        UZF RECHARGE =    24904574.0000          UZF RECHARGE =           9.5154
               GW ET =           0.0000                 GW ET =           0.0000
     SURFACE LEAKAGE =           0.0000       SURFACE LEAKAGE =           0.0000

            TOTAL IN =   153612096.0000              TOTAL IN =          53.6861

          OUT:                                     OUT:
          ----                                     ----
             STORAGE =     2137386.7500               STORAGE =           7.5820
       CONSTANT HEAD =           0.0000         CONSTANT HEAD =           0.0000
               WELLS =    58035604.0000                 WELLS =          20.0000
     HEAD DEP BOUNDS =      757955.3750       HEAD DEP BOUNDS =           0.2615
      STREAM LEAKAGE =    35259912.0000        STREAM LEAKAGE =          12.2265
        UZF RECHARGE =           0.0000          UZF RECHARGE =           0.0000
               GW ET =    57414672.0000                 GW ET =          13.5692
     SURFACE LEAKAGE =           0.0000       SURFACE LEAKAGE =           0.0000

           TOTAL OUT =   153605536.0000             TOTAL OUT =          53.6391

            IN - OUT =        6560.0000              IN - OUT =       4.6963E-02

 PERCENT DISCREPANCY =           0.00     PERCENT DISCREPANCY =           0.09






         TIME SUMMARY AT END OF TIME STEP    3 IN STRESS PERIOD    2
                    SECONDS     MINUTES      HOURS       DAYS        YEARS
                    -----------------------------------------------------------
   TIME STEP LENGTH 1.00083E+05  1668.0      27.801      1.1584     3.17143E-03
 STRESS PERIOD TIME 2.73780E+05  4563.0      76.050      3.1688     8.67557E-03
         TOTAL TIME 2.90178E+06  48363.      806.05      33.585     9.19519E-02
1
 
 SOLVING FOR HEAD 
     5 ITERATIONS FOR TIME STEP   4 IN STRESS PERIOD    2

 MAXIMUM HEAD CHANGE FOR EACH ITERATION:

    HEAD CHANGE   HEAD CHANGE   HEAD CHANGE   HEAD CHANGE   HEAD CHANGE
  LAYER,ROW,COL LAYER,ROW,COL LAYER,ROW,COL LAYER,ROW,COL LAYER,ROW,COL
 ----------------------------------------------------------------------
     0.9775E-02    0.3617E-02    0.1462E-02    0.5619E-03    0.1794E-03
  (  1, 12,  8) (  1,  3,  5) (  1,  3,  5) (  1,  3,  5) (  1,  3,  5)


 OUTPUT CONTROL WAS SPECIFIED FOR A NONEXISTENT TIME STEP
 OR OUTPUT CONTROL DATA ARE NOT ENTERED IN ASCENDING ORDER
 OUTPUT CONTROL STRESS PERIOD    2   TIME STEP    1
 MODEL STRESS PERIOD    2   TIME STEP    4
 APPLYING THE SPECIFIED OUTPUT CONTROL TO THE CURRENT TIME STEP

 OUTPUT CONTROL FOR STRESS PERIOD    2   TIME STEP    4
    PRINT BUDGET
    SAVE BUDGET

            WELLS   PERIOD    2   STEP   4
 WELL      1   LAYER   1   ROW     6   COL     4   RATE    -2.00000    
 WELL      2   LAYER   1   ROW     6   COL     5   RATE    -2.00000    
 WELL      3   LAYER   1   ROW     7   COL     4   RATE    -2.00000    
 WELL      4   LAYER   1   ROW     7   COL     5   RATE    -2.00000    
 WELL      5   LAYER   1   ROW     8   COL     4   RATE    -2.00000    
 WELL      6   LAYER   1   ROW     8   COL     5   RATE    -2.00000    
 WELL      7   LAYER   1   ROW     9   COL     4   RATE    -2.00000    
 WELL      8   LAYER   1   ROW     9   COL     5   RATE    -2.00000    
 WELL      9   LAYER   1   ROW    10   COL     4   RATE    -2.00000    
 WELL     10   LAYER   1   ROW    10   COL     5   RATE    -2.00000    

  HEAD DEP BOUNDS   PERIOD    2   STEP   4
 BOUNDARY      1   LAYER   1   ROW    13   COL     1   RATE   -0.261549    
 BOUNDARY      2   LAYER   1   ROW    14   COL     9   RATE    0.209328    



 STREAM LISTING     PERIOD      2   STEP        4

 LAYER ROW COL. STREAM  RCH.  FLOW INTO     FLOW TO   FLOW OUT OF   OVRLND.     DIRECT     STREAM       STREAM     STREAM     STREAM   STREAMBED  STREAMBED
                SEG.NO.  NO.  STRM. RCH.    AQUIFER    STRM. RCH.    RUNOFF     PRECIP       ET          HEAD       DEPTH      WIDTH   CONDCTNC.   GRADIENT

   1    1    1     1     1    2.5000E+01  1.0688E+00   2.3931E+01  0.000E+00  0.000E+00  0.000E+00  1.09422E+03  1.172E+00  1.296E+01  5.830E-01  6.111E-01
   1    2    2     1     2    2.3931E+01  3.1324E+00   2.0799E+01  0.000E+00  0.000E+00  0.000E+00  1.08920E+03  1.139E+00  1.252E+01  8.765E-01  1.191E+00
   1    3    3     1     3    2.0799E+01  2.8965E+00   1.7902E+01  0.000E+00  0.000E+00  0.000E+00  1.08351E+03  1.090E+00  1.180E+01  7.083E-01  1.363E+00
   1    3    4     1     4    1.7902E+01  2.4599E+00   1.5442E+01  0.000E+00  0.000E+00  0.000E+00  1.07845E+03  1.044E+00  1.096E+01  6.084E-01  1.348E+00
   1    4    5     2     1    5.4424E+00  2.6590E+00   2.7835E+00  0.000E+00  0.000E+00  0.000E+00  1.07234E+03  4.089E-01  1.200E+01  7.800E-01  1.136E+00
   1    5    6     2     2    2.7835E+00  1.9499E+00   8.3359E-01  0.000E+00  0.000E+00  0.000E+00  1.06676E+03  2.498E-01  1.200E+01  6.000E-01  1.083E+00
   1    6    6     2     3    8.3359E-01  8.3359E-01   0.0000E+00  0.000E+00  0.000E+00  0.000E+00  1.06183E+03  3.531E-02  1.200E+01  6.000E-01  1.012E+00
   1    7    6     2     4    0.0000E+00  0.0000E+00   0.0000E+00  0.000E+00  0.000E+00  0.000E+00  1.05708E+03  0.000E+00  1.200E+01  6.000E-01  1.000E+00
   1    8    6     2     5    0.0000E+00  0.0000E+00   0.0000E+00  0.000E+00  0.000E+00  0.000E+00  1.05236E+03  0.000E+00  1.200E+01  6.000E-01  1.000E+00
   1    3    5     3     1    1.0000E+01  2.8252E+00   7.1748E+00  0.000E+00  0.000E+00  0.000E+00  1.07555E+03  1.909E+00  9.636E+00  7.227E-01  1.955E+00
   1    3    6     3     2    7.1748E+00  2.2480E+00   4.9268E+00  0.000E+00  0.000E+00  0.000E+00  1.07264E+03  1.727E+00  8.909E+00  6.682E-01  1.682E+00
   1    3    7     3     3    4.9268E+00  1.1381E+00   3.7887E+00  0.000E+00  0.000E+00  0.000E+00  1.06987E+03  1.555E+00  8.218E+00  5.547E-01  1.026E+00
   1    4    8     3     4    3.7887E+00  1.6576E+00   2.1312E+00  0.000E+00  0.000E+00  0.000E+00  1.06682E+03  1.364E+00  7.455E+00  6.709E-01  1.235E+00
   1    5    8     3     5    2.1312E+00  1.5790E+00   5.5222E-01  0.000E+00  0.000E+00  0.000E+00  1.06362E+03  1.164E+00  6.655E+00  4.991E-01  1.582E+00
   1    6    8     3     6    5.5222E-01  5.5222E-01   0.0000E+00  0.000E+00  0.000E+00  0.000E+00  1.06158E+03  0.000E+00  6.145E+00  1.844E-01  1.518E+00
   1    5   10     4     1    1.0000E+01  9.0525E-01   9.0947E+00  0.000E+00  0.000E+00  0.000E+00  1.07835E+03  6.210E-01  1.000E+01  2.500E-01  1.207E+00
   1    5    9     4     2    9.0947E+00  1.7835E+00   7.3113E+00  0.000E+00  0.000E+00  0.000E+00  1.07148E+03  5.670E-01  1.000E+01  5.000E-01  1.189E+00
   1    6    8     4     3    7.3113E+00  1.2257E+00   6.0855E+00  0.000E+00  0.000E+00  0.000E+00  1.06368E+03  5.021E-01  1.000E+01  3.500E-01  1.167E+00
   1    6    8     5     1    6.0855E+00  1.0216E+00   5.0640E+00  0.000E+00  0.000E+00  0.000E+00  1.05855E+03  5.474E-01  1.065E+01  4.262E-01  7.991E-01
   1    7    7     5     2    5.0640E+00  1.5882E+00   3.4758E+00  0.000E+00  0.000E+00  0.000E+00  1.05400E+03  4.986E-01  9.079E+00  4.539E-01  1.166E+00
   1    8    7     5     3    3.4758E+00  8.9043E-01   2.5854E+00  0.000E+00  0.000E+00  0.000E+00  1.04969E+03  4.422E-01  7.391E+00  2.587E-01  1.147E+00
   1    8    6     5     4    2.5854E+00  5.3526E-01   2.0501E+00  0.000E+00  0.000E+00  0.000E+00  1.04665E+03  4.026E-01  6.292E+00  1.573E-01  1.134E+00
   1    9    6     6     1    2.0501E+00  1.9121E+00   1.3801E-01  0.000E+00  0.000E+00  0.000E+00  1.04291E+03  1.868E-01  1.200E+01  6.000E-01  1.062E+00
   1   10    7     6     2    1.3801E-01  1.3801E-01   0.0000E+00  0.000E+00  0.000E+00  0.000E+00  1.03819E+03  1.213E-02  1.200E+01  6.000E-01  1.004E+00
   1   11    7     6     3    0.0000E+00  0.0000E+00   0.0000E+00  0.000E+00  0.000E+00  0.000E+00  1.03364E+03  0.000E+00  1.200E+01  6.000E-01  1.000E+00
   1   12    7     6     4    0.0000E+00  0.0000E+00   0.0000E+00  0.000E+00  0.000E+00  0.000E+00  1.02909E+03  0.000E+00  1.200E+01  6.000E-01  4.086E-01
   1   13    7     6     5    0.0000E+00 -7.6544E-01   7.6544E-01  0.000E+00  0.000E+00  0.000E+00  1.02601E+03  9.947E-02  1.200E+01  2.400E-01 -1.063E+00
   1   14    9     7     1    1.5000E+02  2.0970E+00   1.4790E+02  0.000E+00  0.000E+00  0.000E+00  1.03987E+03  2.286E+00  5.529E+01  5.592E+00  1.250E-01
   1   13    8     7     2    1.4790E+02  3.1261E+00   1.4478E+02  0.000E+00  0.000E+00  0.000E+00  1.03477E+03  2.272E+00  5.522E+01  6.144E+00  1.696E-01
   1   13    7     7     3    1.4478E+02  2.6643E+00   1.4211E+02  0.000E+00  0.000E+00  0.000E+00  1.02968E+03  2.256E+00  5.515E+01  5.578E+00  1.592E-01
   1   13    6     8     1    1.4288E+02  1.0037E+00   1.4187E+02  0.000E+00  0.000E+00  0.000E+00  1.02464E+03  2.762E+00  4.005E+01  4.082E+00  8.197E-02
   1   13    5     8     2    1.4187E+02 -1.7379E+00   1.4361E+02  0.000E+00  0.000E+00  0.000E+00  1.01839E+03  2.765E+00  4.009E+01  4.085E+00 -1.418E-01
   1   13    4     8     3    1.4361E+02 -3.5050E+00   1.4712E+02  0.000E+00  0.000E+00  0.000E+00  1.01216E+03  2.784E+00  4.037E+01  4.113E+00 -2.840E-01
   1   13    3     8     4    1.4712E+02 -3.8500E+00   1.5097E+02  0.000E+00  0.000E+00  0.000E+00  1.00594E+03  2.810E+00  4.075E+01  4.152E+00 -3.091E-01
   1   13    2     8     5    1.5097E+02 -1.9719E+00   1.5294E+02  0.000E+00  0.000E+00  0.000E+00  9.99706E+02  2.831E+00  4.104E+01  4.182E+00 -1.572E-01
   1   13    1     8     6    1.5294E+02 -4.2531E-01   1.5336E+02  0.000E+00  0.000E+00  0.000E+00  9.94714E+02  2.839E+00  4.116E+01  2.517E+00 -5.633E-02



 UBDSV3 SAVING "           GW ET" ON UNIT  61 AT TIME STEP  4, STRESS PERIOD   2
 UBDSV3 SAVING "    UZF RECHARGE" ON UNIT  61 AT TIME STEP  4, STRESS PERIOD   2
 UBDSV3 SAVING " SURFACE LEAKAGE" ON UNIT  61 AT TIME STEP  4, STRESS PERIOD   2
 UBDSV3 SAVING "       HORT+DUNN" ON UNIT  61 AT TIME STEP  4, STRESS PERIOD   2
 UBDSV3 SAVING "  STORAGE CHANGE" ON UNIT  61 AT TIME STEP  4, STRESS PERIOD   2


UNSATURATED ZONE PACKAGE VOLUMETRIC BUDGET FOR  TIME STEP     4 STRESS PERIOD    2
  ------------------------------------------------------------------------------



     CUMULATIVE VOLUMES      L**3       RATES FOR THIS TIME STEP      L**3/T
     ------------------                 ------------------------

           IN:                                      IN:
           ---                                      ---
        INFILTRATION =    48298778.8984          INFILTRATION =          67.8000

          OUT:                                     OUT:
          ----                                     ----
              UZF ET =    47808186.4241                UZF ET =         124.5221
        UZF RECHARGE =    25938377.9636          UZF RECHARGE =           9.3906

            IN - OUT =   -25447785.4893              IN - OUT =         -66.1127

          STORAGE:                                 STORAGE:
          --------                                 --------
      STORAGE CHANGE =   -25442119.8036        STORAGE CHANGE =         -66.0969

 PERCENT DISCREPANCY IS DIFFERENCE BETWEEN IN-OUT MINUS CHANGE IN STORAGE
 DIVIDED BY THE AVERAGE OF IN AND OUT TIMES 100

 PERCENT DISCREPANCY =          -0.00     PERCENT DISCREPANCY =          -0.01






1
  VOLUMETRIC BUDGET FOR ENTIRE MODEL AT END OF TIME STEP    4, STRESS PERIOD   2
  ------------------------------------------------------------------------------

     CUMULATIVE VOLUMES      L**3       RATES FOR THIS TIME STEP      L**3/T
     ------------------                 ------------------------

           IN:                                      IN:
           ---                                      ---
             STORAGE =        5321.1152               STORAGE =       1.5198E-02
       CONSTANT HEAD =           0.0000         CONSTANT HEAD =           0.0000
               WELLS =           0.0000                 WELLS =           0.0000
     HEAD DEP BOUNDS =      632168.3750       HEAD DEP BOUNDS =           0.2093
      STREAM LEAKAGE =   132926792.0000        STREAM LEAKAGE =          43.8912
        UZF RECHARGE =    25938394.0000          UZF RECHARGE =           9.3906
               GW ET =           0.0000                 GW ET =           0.0000
     SURFACE LEAKAGE =           0.0000       SURFACE LEAKAGE =           0.0000

            TOTAL IN =   159502672.0000              TOTAL IN =          53.5063

          OUT:                                     OUT:
          ----                                     ----
             STORAGE =     2950401.0000               STORAGE =           7.3849
       CONSTANT HEAD =           0.0000         CONSTANT HEAD =           0.0000
               WELLS =    60237424.0000                 WELLS =          20.0000
     HEAD DEP BOUNDS =      786749.5625       HEAD DEP BOUNDS =           0.2615
      STREAM LEAKAGE =    36609144.0000        STREAM LEAKAGE =          12.2556
        UZF RECHARGE =           0.0000          UZF RECHARGE =           0.0000
               GW ET =    58910144.0000                 GW ET =          13.5840
     SURFACE LEAKAGE =           0.0000       SURFACE LEAKAGE =           0.0000

           TOTAL OUT =   159493856.0000             TOTAL OUT =          53.4860

            IN - OUT =        8816.0000              IN - OUT =       2.0290E-02

 PERCENT DISCREPANCY =           0.01     PERCENT DISCREPANCY =           0.04






         TIME SUMMARY AT END OF TIME STEP    4 IN STRESS PERIOD    2
                    SECONDS     MINUTES      HOURS       DAYS        YEARS
                    -----------------------------------------------------------
   TIME STEP LENGTH 1.10091E+05  1834.9      30.581      1.2742     3.48858E-03
 STRESS PERIOD TIME 3.83871E+05  6397.9      106.63      4.4430     1.21642E-02
         TOTAL TIME 3.01187E+06  50198.      836.63      34.860     9.54404E-02
1
 
 SOLVING FOR HEAD 
     5 ITERATIONS FOR TIME STEP   5 IN STRESS PERIOD    2

 MAXIMUM HEAD CHANGE FOR EACH ITERATION:

    HEAD CHANGE   HEAD CHANGE   HEAD CHANGE   HEAD CHANGE   HEAD CHANGE
  LAYER,ROW,COL LAYER,ROW,COL LAYER,ROW,COL LAYER,ROW,COL LAYER,ROW,COL
 ----------------------------------------------------------------------
     0.1040E-01    0.3772E-02    0.1420E-02    0.5781E-03    0.1891E-03
  (  1, 12,  8) (  1,  3,  5) (  1,  3,  5) (  1,  3,  5) (  1,  3,  5)


 OUTPUT CONTROL FOR STRESS PERIOD    2   TIME STEP    5
    PRINT BUDGET
    SAVE BUDGET

            WELLS   PERIOD    2   STEP   5
 WELL      1   LAYER   1   ROW     6   COL     4   RATE    -2.00000    
 WELL      2   LAYER   1   ROW     6   COL     5   RATE    -2.00000    
 WELL      3   LAYER   1   ROW     7   COL     4   RATE    -2.00000    
 WELL      4   LAYER   1   ROW     7   COL     5   RATE    -2.00000    
 WELL      5   LAYER   1   ROW     8   COL     4   RATE    -2.00000    
 WELL      6   LAYER   1   ROW     8   COL     5   RATE    -2.00000    
 WELL      7   LAYER   1   ROW     9   COL     4   RATE    -2.00000    
 WELL      8   LAYER   1   ROW     9   COL     5   RATE    -2.00000    
 WELL      9   LAYER   1   ROW    10   COL     4   RATE    -2.00000    
 WELL     10   LAYER   1   ROW    10   COL     5   RATE    -2.00000    

  HEAD DEP BOUNDS   PERIOD    2   STEP   5
 BOUNDARY      1   LAYER   1   ROW    13   COL     1   RATE   -0.261648    
 BOUNDARY      2   LAYER   1   ROW    14   COL     9   RATE    0.209193    



 STREAM LISTING     PERIOD      2   STEP        5

 LAYER ROW COL. STREAM  RCH.  FLOW INTO     FLOW TO   FLOW OUT OF   OVRLND.     DIRECT     STREAM       STREAM     STREAM     STREAM   STREAMBED  STREAMBED
                SEG.NO.  NO.  STRM. RCH.    AQUIFER    STRM. RCH.    RUNOFF     PRECIP       ET          HEAD       DEPTH      WIDTH   CONDCTNC.   GRADIENT

   1    1    1     1     1    2.5000E+01  1.0661E+00   2.3934E+01  0.000E+00  0.000E+00  0.000E+00  1.09422E+03  1.172E+00  1.296E+01  5.830E-01  6.095E-01
   1    2    2     1     2    2.3934E+01  3.1268E+00   2.0807E+01  0.000E+00  0.000E+00  0.000E+00  1.08920E+03  1.140E+00  1.252E+01  8.765E-01  1.189E+00
   1    3    3     1     3    2.0807E+01  2.8972E+00   1.7910E+01  0.000E+00  0.000E+00  0.000E+00  1.08351E+03  1.090E+00  1.181E+01  7.084E-01  1.363E+00
   1    3    4     1     4    1.7910E+01  2.4605E+00   1.5449E+01  0.000E+00  0.000E+00  0.000E+00  1.07845E+03  1.044E+00  1.096E+01  6.085E-01  1.348E+00
   1    4    5     2     1    5.4493E+00  2.6593E+00   2.7901E+00  0.000E+00  0.000E+00  0.000E+00  1.07234E+03  4.093E-01  1.200E+01  7.800E-01  1.136E+00
   1    5    6     2     2    2.7901E+00  1.9502E+00   8.3990E-01  0.000E+00  0.000E+00  0.000E+00  1.06676E+03  2.503E-01  1.200E+01  6.000E-01  1.083E+00
   1    6    6     2     3    8.3990E-01  8.3990E-01   0.0000E+00  0.000E+00  0.000E+00  0.000E+00  1.06183E+03  3.547E-02  1.200E+01  6.000E-01  1.012E+00
   1    7    6     2     4    0.0000E+00  0.0000E+00   0.0000E+00  0.000E+00  0.000E+00  0.000E+00  1.05708E+03  0.000E+00  1.200E+01  6.000E-01  1.000E+00
   1    8    6     2     5    0.0000E+00  0.0000E+00   0.0000E+00  0.000E+00  0.000E+00  0.000E+00  1.05236E+03  0.000E+00  1.200E+01  6.000E-01  1.000E+00
   1    3    5     3     1    1.0000E+01  2.8252E+00   7.1748E+00  0.000E+00  0.000E+00  0.000E+00  1.07555E+03  1.909E+00  9.636E+00  7.227E-01  1.955E+00
   1    3    6     3     2    7.1748E+00  2.2395E+00   4.9354E+00  0.000E+00  0.000E+00  0.000E+00  1.07264E+03  1.727E+00  8.909E+00  6.682E-01  1.676E+00
   1    3    7     3     3    4.9354E+00  1.1316E+00   3.8038E+00  0.000E+00  0.000E+00  0.000E+00  1.06987E+03  1.555E+00  8.218E+00  5.547E-01  1.020E+00
   1    4    8     3     4    3.8038E+00  1.6495E+00   2.1543E+00  0.000E+00  0.000E+00  0.000E+00  1.06682E+03  1.364E+00  7.455E+00  6.709E-01  1.229E+00
   1    5    8     3     5    2.1543E+00  1.5790E+00   5.7531E-01  0.000E+00  0.000E+00  0.000E+00  1.06362E+03  1.164E+00  6.655E+00  4.991E-01  1.582E+00
   1    6    8     3     6    5.7531E-01  5.5980E-01   1.5515E-02  0.000E+00  0.000E+00  0.000E+00  1.06158E+03  1.036E+00  6.145E+00  1.844E-01  1.518E+00
   1    5   10     4     1    1.0000E+01  9.0525E-01   9.0947E+00  0.000E+00  0.000E+00  0.000E+00  1.07835E+03  6.210E-01  1.000E+01  2.500E-01  1.207E+00
   1    5    9     4     2    9.0947E+00  1.7835E+00   7.3113E+00  0.000E+00  0.000E+00  0.000E+00  1.07148E+03  5.670E-01  1.000E+01  5.000E-01  1.189E+00
   1    6    8     4     3    7.3113E+00  1.2257E+00   6.0855E+00  0.000E+00  0.000E+00  0.000E+00  1.06368E+03  5.021E-01  1.000E+01  3.500E-01  1.167E+00
   1    6    8     5     1    6.1011E+00  1.0197E+00   5.0813E+00  0.000E+00  0.000E+00  0.000E+00  1.05855E+03  5.480E-01  1.067E+01  4.269E-01  7.962E-01
   1    7    7     5     2    5.0813E+00  1.5919E+00   3.4894E+00  0.000E+00  0.000E+00  0.000E+00  1.05400E+03  4.992E-01  9.098E+00  4.549E-01  1.166E+00
   1    8    7     5     3    3.4894E+00  8.9278E-01   2.5967E+00  0.000E+00  0.000E+00  0.000E+00  1.04969E+03  4.429E-01  7.409E+00  2.593E-01  1.148E+00
   1    8    6     5     4    2.5967E+00  5.3680E-01   2.0599E+00  0.000E+00  0.000E+00  0.000E+00  1.04665E+03  4.032E-01  6.309E+00  1.577E-01  1.134E+00
   1    9    6     6     1    2.0599E+00  1.9127E+00   1.4721E-01  0.000E+00  0.000E+00  0.000E+00  1.04292E+03  1.878E-01  1.200E+01  6.000E-01  1.063E+00
   1   10    7     6     2    1.4721E-01  1.4721E-01   0.0000E+00  0.000E+00  0.000E+00  0.000E+00  1.03819E+03  1.261E-02  1.200E+01  6.000E-01  1.004E+00
   1   11    7     6     3    0.0000E+00  0.0000E+00   0.0000E+00  0.000E+00  0.000E+00  0.000E+00  1.03364E+03  0.000E+00  1.200E+01  6.000E-01  1.000E+00
   1   12    7     6     4    0.0000E+00  0.0000E+00   0.0000E+00  0.000E+00  0.000E+00  0.000E+00  1.02909E+03  0.000E+00  1.200E+01  6.000E-01  4.064E-01
   1   13    7     6     5    0.0000E+00 -7.6602E-01   7.6602E-01  0.000E+00  0.000E+00  0.000E+00  1.02601E+03  9.952E-02  1.200E+01  2.400E-01 -1.064E+00
   1   14    9     7     1    1.5000E+02  2.0775E+00   1.4792E+02  0.000E+00  0.000E+00  0.000E+00  1.03987E+03  2.286E+00  5.529E+01  5.592E+00  1.238E-01
   1   13    8     7     2    1.4792E+02  3.1079E+00   1.4481E+02  0.000E+00  0.000E+00  0.000E+00  1.03477E+03  2.272E+00  5.522E+01  6.144E+00  1.686E-01
   1   13    7     7     3    1.4481E+02  2.6520E+00   1.4216E+02  0.000E+00  0.000E+00  0.000E+00  1.02968E+03  2.256E+00  5.515E+01  5.578E+00  1.585E-01
   1   13    6     8     1    1.4293E+02  9.9393E-01   1.4193E+02  0.000E+00  0.000E+00  0.000E+00  1.02464E+03  2.763E+00  4.006E+01  4.082E+00  8.116E-02
   1   13    5     8     2    1.4193E+02 -1.7424E+00   1.4368E+02  0.000E+00  0.000E+00  0.000E+00  1.01839E+03  2.765E+00  4.010E+01  4.086E+00 -1.421E-01
   1   13    4     8     3    1.4368E+02 -3.5073E+00   1.4718E+02  0.000E+00  0.000E+00  0.000E+00  1.01216E+03  2.784E+00  4.037E+01  4.114E+00 -2.842E-01
   1   13    3     8     4    1.4718E+02 -3.8531E+00   1.5104E+02  0.000E+00  0.000E+00  0.000E+00  1.00594E+03  2.811E+00  4.075E+01  4.153E+00 -3.093E-01
   1   13    2     8     5    1.5104E+02 -1.9850E+00   1.5302E+02  0.000E+00  0.000E+00  0.000E+00  9.99706E+02  2.831E+00  4.105E+01  4.183E+00 -1.582E-01
   1   13    1     8     6    1.5302E+02 -4.3043E-01   1.5345E+02  0.000E+00  0.000E+00  0.000E+00  9.94714E+02  2.839E+00  4.117E+01  2.517E+00 -5.699E-02



 UBDSV3 SAVING "           GW ET" ON UNIT  61 AT TIME STEP  5, STRESS PERIOD   2
 UBDSV3 SAVING "    UZF RECHARGE" ON UNIT  61 AT TIME STEP  5, STRESS PERIOD   2
 UBDSV3 SAVING " SURFACE LEAKAGE" ON UNIT  61 AT TIME STEP  5, STRESS PERIOD   2
 UBDSV3 SAVING "       HORT+DUNN" ON UNIT  61 AT TIME STEP  5, STRESS PERIOD   2
 UBDSV3 SAVING "  STORAGE CHANGE" ON UNIT  61 AT TIME STEP  5, STRESS PERIOD   2


UNSATURATED ZONE PACKAGE VOLUMETRIC BUDGET FOR  TIME STEP     5 STRESS PERIOD    2
  ------------------------------------------------------------------------------



     CUMULATIVE VOLUMES      L**3       RATES FOR THIS TIME STEP      L**3/T
     ------------------                 ------------------------

           IN:                                      IN:
           ---                                      ---
        INFILTRATION =    56509372.9551          INFILTRATION =          67.8000

          OUT:                                     OUT:
          ----                                     ----
              UZF ET =    62885922.9939                UZF ET =         124.5063
        UZF RECHARGE =    27060730.4407          UZF RECHARGE =           9.2680

            IN - OUT =   -33437280.4795              IN - OUT =         -65.9742

          STORAGE:                                 STORAGE:
          --------                                 --------
      STORAGE CHANGE =   -33429627.2591        STORAGE CHANGE =         -65.9578

 PERCENT DISCREPANCY IS DIFFERENCE BETWEEN IN-OUT MINUS CHANGE IN STORAGE
 DIVIDED BY THE AVERAGE OF IN AND OUT TIMES 100

 PERCENT DISCREPANCY =          -0.00     PERCENT DISCREPANCY =          -0.01






1
  VOLUMETRIC BUDGET FOR ENTIRE MODEL AT END OF TIME STEP    5, STRESS PERIOD   2
  ------------------------------------------------------------------------------

     CUMULATIVE VOLUMES      L**3       RATES FOR THIS TIME STEP      L**3/T
     ------------------                 ------------------------

           IN:                                      IN:
           ---                                      ---
             STORAGE =        6828.9551               STORAGE =       1.2451E-02
       CONSTANT HEAD =           0.0000         CONSTANT HEAD =           0.0000
               WELLS =           0.0000                 WELLS =           0.0000
     HEAD DEP BOUNDS =      657501.6875       HEAD DEP BOUNDS =           0.2092
      STREAM LEAKAGE =   138234768.0000        STREAM LEAKAGE =          43.8313
        UZF RECHARGE =    27060746.0000          UZF RECHARGE =           9.2680
               GW ET =           0.0000                 GW ET =           0.0000
     SURFACE LEAKAGE =           0.0000       SURFACE LEAKAGE =           0.0000

            TOTAL IN =   165959856.0000              TOTAL IN =          53.3209

          OUT:                                     OUT:
          ----                                     ----
             STORAGE =     3813769.5000               STORAGE =           7.1294
       CONSTANT HEAD =           0.0000         CONSTANT HEAD =           0.0000
               WELLS =    62659428.0000                 WELLS =          20.0000
     HEAD DEP BOUNDS =      818435.1875       HEAD DEP BOUNDS =           0.2616
      STREAM LEAKAGE =    38096780.0000        STREAM LEAKAGE =          12.2843
        UZF RECHARGE =           0.0000          UZF RECHARGE =           0.0000
               GW ET =    60557020.0000                 GW ET =          13.5993
     SURFACE LEAKAGE =           0.0000       SURFACE LEAKAGE =           0.0000

           TOTAL OUT =   165945440.0000             TOTAL OUT =          53.2746

            IN - OUT =       14416.0000              IN - OUT =       4.6261E-02

 PERCENT DISCREPANCY =           0.01     PERCENT DISCREPANCY =           0.09






         TIME SUMMARY AT END OF TIME STEP    5 IN STRESS PERIOD    2
                    SECONDS     MINUTES      HOURS       DAYS        YEARS
                    -----------------------------------------------------------
   TIME STEP LENGTH 1.21100E+05  2018.3      33.639      1.4016     3.83743E-03
 STRESS PERIOD TIME 5.04972E+05  8416.2      140.27      5.8446     1.60016E-02
         TOTAL TIME 3.13297E+06  52216.      870.27      36.261     9.92779E-02
1
 
 SOLVING FOR HEAD 
     5 ITERATIONS FOR TIME STEP   6 IN STRESS PERIOD    2

 MAXIMUM HEAD CHANGE FOR EACH ITERATION:

    HEAD CHANGE   HEAD CHANGE   HEAD CHANGE   HEAD CHANGE   HEAD CHANGE
  LAYER,ROW,COL LAYER,ROW,COL LAYER,ROW,COL LAYER,ROW,COL LAYER,ROW,COL
 ----------------------------------------------------------------------
     0.1111E-01    0.3732E-02    0.1475E-02    0.5379E-03    0.1883E-03
  (  1, 12,  8) (  1,  3,  5) (  1,  3,  5) (  1,  3,  5) (  1,  3,  5)


 NO OUTPUT CONTROL FOR STRESS PERIOD    2   TIME STEP    6
 
 SOLVING FOR HEAD 
     6 ITERATIONS FOR TIME STEP   7 IN STRESS PERIOD    2

 MAXIMUM HEAD CHANGE FOR EACH ITERATION:

    HEAD CHANGE   HEAD CHANGE   HEAD CHANGE   HEAD CHANGE   HEAD CHANGE
  LAYER,ROW,COL LAYER,ROW,COL LAYER,ROW,COL LAYER,ROW,COL LAYER,ROW,COL
 ----------------------------------------------------------------------
     0.1175E-01    0.3776E-02    0.1465E-02    0.5581E-03    0.2001E-03
  (  1, 12,  8) (  1,  3,  5) (  1,  3,  5) (  1,  3,  5) (  1,  3,  5)
    -0.5631E-04
  (  1, 13,  5)


 NO OUTPUT CONTROL FOR STRESS PERIOD    2   TIME STEP    7
 
 SOLVING FOR HEAD 
     5 ITERATIONS FOR TIME STEP   8 IN STRESS PERIOD    2

 MAXIMUM HEAD CHANGE FOR EACH ITERATION:

    HEAD CHANGE   HEAD CHANGE   HEAD CHANGE   HEAD CHANGE   HEAD CHANGE
  LAYER,ROW,COL LAYER,ROW,COL LAYER,ROW,COL LAYER,ROW,COL LAYER,ROW,COL
 ----------------------------------------------------------------------
     0.1252E-01    0.3766E-02    0.1436E-02    0.4806E-03    0.1932E-03
  (  1, 12,  8) (  1,  3,  5) (  1,  3,  5) (  1,  3,  5) (  1,  3,  5)


 NO OUTPUT CONTROL FOR STRESS PERIOD    2   TIME STEP    8
 
 SOLVING FOR HEAD 
     6 ITERATIONS FOR TIME STEP   9 IN STRESS PERIOD    2

 MAXIMUM HEAD CHANGE FOR EACH ITERATION:

    HEAD CHANGE   HEAD CHANGE   HEAD CHANGE   HEAD CHANGE   HEAD CHANGE
  LAYER,ROW,COL LAYER,ROW,COL LAYER,ROW,COL LAYER,ROW,COL LAYER,ROW,COL
 ----------------------------------------------------------------------
     0.1320E-01    0.3719E-02    0.1366E-02    0.4867E-03    0.2032E-03
  (  1, 12,  8) (  1, 12,  8) (  1,  3,  5) (  1,  3,  5) (  1,  3,  5)
     0.9438E-04
  (  1,  3,  5)


 NO OUTPUT CONTROL FOR STRESS PERIOD    2   TIME STEP    9
 
 SOLVING FOR HEAD 
     6 ITERATIONS FOR TIME STEP  10 IN STRESS PERIOD    2

 MAXIMUM HEAD CHANGE FOR EACH ITERATION:

    HEAD CHANGE   HEAD CHANGE   HEAD CHANGE   HEAD CHANGE   HEAD CHANGE
  LAYER,ROW,COL LAYER,ROW,COL LAYER,ROW,COL LAYER,ROW,COL LAYER,ROW,COL
 ----------------------------------------------------------------------
     0.1383E-01    0.3831E-02    0.1291E-02    0.4477E-03    0.2039E-03
  (  1, 12,  8) (  1, 12,  8) (  1,  3,  5) (  1, 13,  4) (  1,  3,  5)
     0.6994E-04
  (  1, 12,  8)


 OUTPUT CONTROL FOR STRESS PERIOD    2   TIME STEP   10
    PRINT BUDGET
    SAVE BUDGET

            WELLS   PERIOD    2   STEP  10
 WELL      1   LAYER   1   ROW     6   COL     4   RATE    -2.00000    
 WELL      2   LAYER   1   ROW     6   COL     5   RATE    -2.00000    
 WELL      3   LAYER   1   ROW     7   COL     4   RATE    -2.00000    
 WELL      4   LAYER   1   ROW     7   COL     5   RATE    -2.00000    
 WELL      5   LAYER   1   ROW     8   COL     4   RATE    -2.00000    
 WELL      6   LAYER   1   ROW     8   COL     5   RATE    -2.00000    
 WELL      7   LAYER   1   ROW     9   COL     4   RATE    -2.00000    
 WELL      8   LAYER   1   ROW     9   COL     5   RATE    -2.00000    
 WELL      9   LAYER   1   ROW    10   COL     4   RATE    -2.00000    
 WELL     10   LAYER   1   ROW    10   COL     5   RATE    -2.00000    

  HEAD DEP BOUNDS   PERIOD    2   STEP  10
 BOUNDARY      1   LAYER   1   ROW    13   COL     1   RATE   -0.262146    
 BOUNDARY      2   LAYER   1   ROW    14   COL     9   RATE    0.208673    



 STREAM LISTING     PERIOD      2   STEP       10

 LAYER ROW COL. STREAM  RCH.  FLOW INTO     FLOW TO   FLOW OUT OF   OVRLND.     DIRECT     STREAM       STREAM     STREAM     STREAM   STREAMBED  STREAMBED
                SEG.NO.  NO.  STRM. RCH.    AQUIFER    STRM. RCH.    RUNOFF     PRECIP       ET          HEAD       DEPTH      WIDTH   CONDCTNC.   GRADIENT

   1    1    1     1     1    2.5000E+01  1.0499E+00   2.3950E+01  0.000E+00  0.000E+00  0.000E+00  1.09422E+03  1.172E+00  1.296E+01  5.831E-01  6.002E-01
   1    2    2     1     2    2.3950E+01  3.0958E+00   2.0854E+01  0.000E+00  0.000E+00  0.000E+00  1.08920E+03  1.140E+00  1.253E+01  8.770E-01  1.177E+00
   1    3    3     1     3    2.0854E+01  2.9011E+00   1.7953E+01  0.000E+00  0.000E+00  0.000E+00  1.08351E+03  1.090E+00  1.182E+01  7.092E-01  1.363E+00
   1    3    4     1     4    1.7953E+01  2.4640E+00   1.5489E+01  0.000E+00  0.000E+00  0.000E+00  1.07845E+03  1.044E+00  1.098E+01  6.092E-01  1.348E+00
   1    4    5     2     1    5.4892E+00  2.6611E+00   2.8282E+00  0.000E+00  0.000E+00  0.000E+00  1.07235E+03  4.116E-01  1.200E+01  7.800E-01  1.137E+00
   1    5    6     2     2    2.8282E+00  1.9520E+00   8.7614E-01  0.000E+00  0.000E+00  0.000E+00  1.06676E+03  2.534E-01  1.200E+01  6.000E-01  1.084E+00
   1    6    6     2     3    8.7614E-01  8.7614E-01   0.0000E+00  0.000E+00  0.000E+00  0.000E+00  1.06183E+03  3.638E-02  1.200E+01  6.000E-01  1.012E+00
   1    7    6     2     4    0.0000E+00  0.0000E+00   0.0000E+00  0.000E+00  0.000E+00  0.000E+00  1.05708E+03  0.000E+00  1.200E+01  6.000E-01  1.000E+00
   1    8    6     2     5    0.0000E+00  0.0000E+00   0.0000E+00  0.000E+00  0.000E+00  0.000E+00  1.05236E+03  0.000E+00  1.200E+01  6.000E-01  1.000E+00
   1    3    5     3     1    1.0000E+01  2.8252E+00   7.1748E+00  0.000E+00  0.000E+00  0.000E+00  1.07555E+03  1.909E+00  9.636E+00  7.227E-01  1.955E+00
   1    3    6     3     2    7.1748E+00  2.2022E+00   4.9726E+00  0.000E+00  0.000E+00  0.000E+00  1.07264E+03  1.727E+00  8.909E+00  6.682E-01  1.648E+00
   1    3    7     3     3    4.9726E+00  1.1011E+00   3.8715E+00  0.000E+00  0.000E+00  0.000E+00  1.06987E+03  1.555E+00  8.218E+00  5.547E-01  9.925E-01
   1    4    8     3     4    3.8715E+00  1.6083E+00   2.2632E+00  0.000E+00  0.000E+00  0.000E+00  1.06682E+03  1.364E+00  7.455E+00  6.709E-01  1.199E+00
   1    5    8     3     5    2.2632E+00  1.5790E+00   6.8426E-01  0.000E+00  0.000E+00  0.000E+00  1.06362E+03  1.164E+00  6.655E+00  4.991E-01  1.582E+00
   1    6    8     3     6    6.8426E-01  5.5980E-01   1.2447E-01  0.000E+00  0.000E+00  0.000E+00  1.06158E+03  1.036E+00  6.145E+00  1.844E-01  1.518E+00
   1    5   10     4     1    1.0000E+01  9.0525E-01   9.0947E+00  0.000E+00  0.000E+00  0.000E+00  1.07835E+03  6.210E-01  1.000E+01  2.500E-01  1.207E+00
   1    5    9     4     2    9.0947E+00  1.7835E+00   7.3113E+00  0.000E+00  0.000E+00  0.000E+00  1.07148E+03  5.670E-01  1.000E+01  5.000E-01  1.189E+00
   1    6    8     4     3    7.3113E+00  1.2257E+00   6.0855E+00  0.000E+00  0.000E+00  0.000E+00  1.06368E+03  5.021E-01  1.000E+01  3.500E-01  1.167E+00
   1    6    8     5     1    6.2100E+00  1.0123E+00   5.1978E+00  0.000E+00  0.000E+00  0.000E+00  1.05855E+03  5.518E-01  1.080E+01  4.321E-01  7.809E-01
   1    7    7     5     2    5.1978E+00  1.6169E+00   3.5808E+00  0.000E+00  0.000E+00  0.000E+00  1.05400E+03  5.035E-01  9.230E+00  4.615E-01  1.168E+00
   1    8    7     5     3    3.5808E+00  9.0855E-01   2.6723E+00  0.000E+00  0.000E+00  0.000E+00  1.04970E+03  4.471E-01  7.531E+00  2.636E-01  1.149E+00
   1    8    6     5     4    2.6723E+00  5.4720E-01   2.1251E+00  0.000E+00  0.000E+00  0.000E+00  1.04666E+03  4.075E-01  6.423E+00  1.606E-01  1.136E+00
   1    9    6     6     1    2.1251E+00  1.9165E+00   2.0858E-01  0.000E+00  0.000E+00  0.000E+00  1.04292E+03  1.942E-01  1.200E+01  6.000E-01  1.065E+00
   1   10    7     6     2    2.0858E-01  2.0858E-01   0.0000E+00  0.000E+00  0.000E+00  0.000E+00  1.03820E+03  1.555E-02  1.200E+01  6.000E-01  1.005E+00
   1   11    7     6     3    0.0000E+00  0.0000E+00   0.0000E+00  0.000E+00  0.000E+00  0.000E+00  1.03364E+03  0.000E+00  1.200E+01  6.000E-01  1.000E+00
   1   12    7     6     4    0.0000E+00  0.0000E+00   0.0000E+00  0.000E+00  0.000E+00  0.000E+00  1.02909E+03  0.000E+00  1.200E+01  6.000E-01  3.928E-01
   1   13    7     6     5    0.0000E+00 -7.6858E-01   7.6858E-01  0.000E+00  0.000E+00  0.000E+00  1.02601E+03  9.972E-02  1.200E+01  2.400E-01 -1.067E+00
   1   14    9     7     1    1.5000E+02  2.0021E+00   1.4800E+02  0.000E+00  0.000E+00  0.000E+00  1.03987E+03  2.286E+00  5.529E+01  5.592E+00  1.193E-01
   1   13    8     7     2    1.4800E+02  3.0355E+00   1.4496E+02  0.000E+00  0.000E+00  0.000E+00  1.03477E+03  2.273E+00  5.523E+01  6.144E+00  1.647E-01
   1   13    7     7     3    1.4496E+02  2.5969E+00   1.4237E+02  0.000E+00  0.000E+00  0.000E+00  1.02968E+03  2.257E+00  5.516E+01  5.578E+00  1.552E-01
   1   13    6     8     1    1.4313E+02  9.4620E-01   1.4219E+02  0.000E+00  0.000E+00  0.000E+00  1.02464E+03  2.764E+00  4.008E+01  4.085E+00  7.722E-02
   1   13    5     8     2    1.4219E+02 -1.7718E+00   1.4396E+02  0.000E+00  0.000E+00  0.000E+00  1.01839E+03  2.767E+00  4.013E+01  4.089E+00 -1.444E-01
   1   13    4     8     3    1.4396E+02 -3.6007E+00   1.4756E+02  0.000E+00  0.000E+00  0.000E+00  1.01216E+03  2.787E+00  4.041E+01  4.118E+00 -2.915E-01
   1   13    3     8     4    1.4756E+02 -3.8697E+00   1.5143E+02  0.000E+00  0.000E+00  0.000E+00  1.00594E+03  2.813E+00  4.079E+01  4.157E+00 -3.103E-01
   1   13    2     8     5    1.5143E+02 -2.0391E+00   1.5347E+02  0.000E+00  0.000E+00  0.000E+00  9.99709E+02  2.834E+00  4.109E+01  4.188E+00 -1.623E-01
   1   13    1     8     6    1.5347E+02 -4.5591E-01   1.5393E+02  0.000E+00  0.000E+00  0.000E+00  9.94718E+02  2.843E+00  4.122E+01  2.520E+00 -6.030E-02



 UBDSV3 SAVING "           GW ET" ON UNIT  61 AT TIME STEP 10, STRESS PERIOD   2
 UBDSV3 SAVING "    UZF RECHARGE" ON UNIT  61 AT TIME STEP 10, STRESS PERIOD   2
 UBDSV3 SAVING " SURFACE LEAKAGE" ON UNIT  61 AT TIME STEP 10, STRESS PERIOD   2
 UBDSV3 SAVING "       HORT+DUNN" ON UNIT  61 AT TIME STEP 10, STRESS PERIOD   2
 UBDSV3 SAVING "  STORAGE CHANGE" ON UNIT  61 AT TIME STEP 10, STRESS PERIOD   2


UNSATURATED ZONE PACKAGE VOLUMETRIC BUDGET FOR  TIME STEP    10 STRESS PERIOD    2
  ------------------------------------------------------------------------------



     CUMULATIVE VOLUMES      L**3       RATES FOR THIS TIME STEP      L**3/T
     ------------------                 ------------------------

           IN:                                      IN:
           ---                                      ---
        INFILTRATION =   111648524.4121          INFILTRATION =          67.8000

          OUT:                                     OUT:
          ----                                     ----
              UZF ET =   164096918.2102                UZF ET =         124.4169
        UZF RECHARGE =    34392797.4336          UZF RECHARGE =           9.0185

            IN - OUT =   -86841191.2317              IN - OUT =         -65.6354

          STORAGE:                                 STORAGE:
          --------                                 --------
      STORAGE CHANGE =   -86818345.5168        STORAGE CHANGE =         -65.6152

 PERCENT DISCREPANCY IS DIFFERENCE BETWEEN IN-OUT MINUS CHANGE IN STORAGE
 DIVIDED BY THE AVERAGE OF IN AND OUT TIMES 100

 PERCENT DISCREPANCY =          -0.00     PERCENT DISCREPANCY =          -0.02






1
  VOLUMETRIC BUDGET FOR ENTIRE MODEL AT END OF TIME STEP   10, STRESS PERIOD   2
  ------------------------------------------------------------------------------

     CUMULATIVE VOLUMES      L**3       RATES FOR THIS TIME STEP      L**3/T
     ------------------                 ------------------------

           IN:                                      IN:
           ---                                      ---
             STORAGE =       13379.3066               STORAGE =       6.2561E-03
       CONSTANT HEAD =           0.0000         CONSTANT HEAD =           0.0000
               WELLS =           0.0000                 WELLS =           0.0000
     HEAD DEP BOUNDS =      827342.3125       HEAD DEP BOUNDS =           0.2087
      STREAM LEAKAGE =   173745104.0000        STREAM LEAKAGE =          43.5807
        UZF RECHARGE =    34392812.0000          UZF RECHARGE =           9.0185
               GW ET =           0.0000                 GW ET =           0.0000
     SURFACE LEAKAGE =           0.0000       SURFACE LEAKAGE =           0.0000

            TOTAL IN =   208978640.0000              TOTAL IN =          52.8141

          OUT:                                     OUT:
          ----                                     ----
             STORAGE =     9149683.0000               STORAGE =           6.3657
       CONSTANT HEAD =           0.0000         CONSTANT HEAD =           0.0000
               WELLS =    78924664.0000                 WELLS =          20.0000
     HEAD DEP BOUNDS =     1031480.6250       HEAD DEP BOUNDS =           0.2621
      STREAM LEAKAGE =    48183116.0000        STREAM LEAKAGE =          12.5059
        UZF RECHARGE =           0.0000          UZF RECHARGE =           0.0000
               GW ET =    71659528.0000                 GW ET =          13.6837
     SURFACE LEAKAGE =           0.0000       SURFACE LEAKAGE =           0.0000

           TOTAL OUT =   208948480.0000             TOTAL OUT =          52.8174

            IN - OUT =       30160.0000              IN - OUT =      -3.2921E-03

 PERCENT DISCREPANCY =           0.01     PERCENT DISCREPANCY =          -0.01






         TIME SUMMARY AT END OF TIME STEP   10 IN STRESS PERIOD    2
                    SECONDS     MINUTES      HOURS       DAYS        YEARS
                    -----------------------------------------------------------
   TIME STEP LENGTH 1.95033E+05  3250.6      54.176      2.2573     6.18023E-03
 STRESS PERIOD TIME 1.31823E+06  21971.      366.18      15.257     4.17723E-02
         TOTAL TIME 3.94623E+06  65771.      1096.2      45.674     0.12505    
1
 
 SOLVING FOR HEAD 
     6 ITERATIONS FOR TIME STEP  11 IN STRESS PERIOD    2

 MAXIMUM HEAD CHANGE FOR EACH ITERATION:

    HEAD CHANGE   HEAD CHANGE   HEAD CHANGE   HEAD CHANGE   HEAD CHANGE
  LAYER,ROW,COL LAYER,ROW,COL LAYER,ROW,COL LAYER,ROW,COL LAYER,ROW,COL
 ----------------------------------------------------------------------
     0.1454E-01    0.4014E-02    0.1463E-02    0.5691E-03    0.2418E-03
  (  1, 12,  8) (  1, 12,  8) (  1, 13,  3) (  1, 13,  3) (  1, 13,  3)
     0.9335E-04
  (  1,  3,  5)


 NO OUTPUT CONTROL FOR STRESS PERIOD    2   TIME STEP   11
 
 SOLVING FOR HEAD 
     6 ITERATIONS FOR TIME STEP  12 IN STRESS PERIOD    2

 MAXIMUM HEAD CHANGE FOR EACH ITERATION:

    HEAD CHANGE   HEAD CHANGE   HEAD CHANGE   HEAD CHANGE   HEAD CHANGE
  LAYER,ROW,COL LAYER,ROW,COL LAYER,ROW,COL LAYER,ROW,COL LAYER,ROW,COL
 ----------------------------------------------------------------------
     0.1514E-01    0.4027E-02    0.1477E-02    0.5959E-03    0.2373E-03
  (  1, 12,  8) (  1, 12,  8) (  1, 13,  5) (  1, 13,  5) (  1, 13,  5)
     0.1083E-03
  (  1, 13,  3)


 NO OUTPUT CONTROL FOR STRESS PERIOD    2   TIME STEP   12
 
 SOLVING FOR HEAD 
     5 ITERATIONS FOR TIME STEP  13 IN STRESS PERIOD    2

 MAXIMUM HEAD CHANGE FOR EACH ITERATION:

    HEAD CHANGE   HEAD CHANGE   HEAD CHANGE   HEAD CHANGE   HEAD CHANGE
  LAYER,ROW,COL LAYER,ROW,COL LAYER,ROW,COL LAYER,ROW,COL LAYER,ROW,COL
 ----------------------------------------------------------------------
     0.1581E-01    0.4180E-02    0.1256E-02    0.4484E-03    0.1699E-03
  (  1, 12,  8) (  1, 12,  8) (  1, 13,  5) (  1, 13,  5) (  1, 13,  3)


 NO OUTPUT CONTROL FOR STRESS PERIOD    2   TIME STEP   13
 
 SOLVING FOR HEAD 
     5 ITERATIONS FOR TIME STEP  14 IN STRESS PERIOD    2

 MAXIMUM HEAD CHANGE FOR EACH ITERATION:

    HEAD CHANGE   HEAD CHANGE   HEAD CHANGE   HEAD CHANGE   HEAD CHANGE
  LAYER,ROW,COL LAYER,ROW,COL LAYER,ROW,COL LAYER,ROW,COL LAYER,ROW,COL
 ----------------------------------------------------------------------
     0.1625E-01    0.4195E-02    0.1015E-02    0.4603E-03    0.1555E-03
  (  1, 12,  8) (  1, 12,  8) (  1, 12,  8) (  1, 13,  5) (  1, 13,  3)


 NO OUTPUT CONTROL FOR STRESS PERIOD    2   TIME STEP   14
 
 SOLVING FOR HEAD 
     5 ITERATIONS FOR TIME STEP  15 IN STRESS PERIOD    2

 MAXIMUM HEAD CHANGE FOR EACH ITERATION:

    HEAD CHANGE   HEAD CHANGE   HEAD CHANGE   HEAD CHANGE   HEAD CHANGE
  LAYER,ROW,COL LAYER,ROW,COL LAYER,ROW,COL LAYER,ROW,COL LAYER,ROW,COL
 ----------------------------------------------------------------------
     0.1708E-01    0.4267E-02    0.1048E-02    0.3733E-03    0.1023E-03
  (  1, 12,  8) (  1, 12,  8) (  1, 12,  8) (  1, 13,  5) (  1,  4,  7)


 OUTPUT CONTROL FOR STRESS PERIOD    2   TIME STEP   15
    PRINT BUDGET
    PRINT HEAD FOR ALL LAYERS
    SAVE HEAD FOR ALL LAYERS
    SAVE BUDGET

            WELLS   PERIOD    2   STEP  15
 WELL      1   LAYER   1   ROW     6   COL     4   RATE    -2.00000    
 WELL      2   LAYER   1   ROW     6   COL     5   RATE    -2.00000    
 WELL      3   LAYER   1   ROW     7   COL     4   RATE    -2.00000    
 WELL      4   LAYER   1   ROW     7   COL     5   RATE    -2.00000    
 WELL      5   LAYER   1   ROW     8   COL     4   RATE    -2.00000    
 WELL      6   LAYER   1   ROW     8   COL     5   RATE    -2.00000    
 WELL      7   LAYER   1   ROW     9   COL     4   RATE    -2.00000    
 WELL      8   LAYER   1   ROW     9   COL     5   RATE    -2.00000    
 WELL      9   LAYER   1   ROW    10   COL     4   RATE    -2.00000    
 WELL     10   LAYER   1   ROW    10   COL     5   RATE    -2.00000    

  HEAD DEP BOUNDS   PERIOD    2   STEP  15
 BOUNDARY      1   LAYER   1   ROW    13   COL     1   RATE   -0.262599    
 BOUNDARY      2   LAYER   1   ROW    14   COL     9   RATE    0.208433    



 STREAM LISTING     PERIOD      2   STEP       15

 LAYER ROW COL. STREAM  RCH.  FLOW INTO     FLOW TO   FLOW OUT OF   OVRLND.     DIRECT     STREAM       STREAM     STREAM     STREAM   STREAMBED  STREAMBED
                SEG.NO.  NO.  STRM. RCH.    AQUIFER    STRM. RCH.    RUNOFF     PRECIP       ET          HEAD       DEPTH      WIDTH   CONDCTNC.   GRADIENT

   1    1    1     1     1    2.5000E+01  1.0295E+00   2.3970E+01  0.000E+00  0.000E+00  0.000E+00  1.09422E+03  1.172E+00  1.296E+01  5.832E-01  5.885E-01
   1    2    2     1     2    2.3970E+01  3.0628E+00   2.0908E+01  0.000E+00  0.000E+00  0.000E+00  1.08920E+03  1.141E+00  1.254E+01  8.776E-01  1.163E+00
   1    3    3     1     3    2.0908E+01  2.9055E+00   1.8002E+01  0.000E+00  0.000E+00  0.000E+00  1.08351E+03  1.091E+00  1.184E+01  7.102E-01  1.364E+00
   1    3    4     1     4    1.8002E+01  2.4680E+00   1.5534E+01  0.000E+00  0.000E+00  0.000E+00  1.07845E+03  1.045E+00  1.099E+01  6.101E-01  1.348E+00
   1    4    5     2     1    5.5342E+00  2.6631E+00   2.8711E+00  0.000E+00  0.000E+00  0.000E+00  1.07235E+03  4.142E-01  1.200E+01  7.800E-01  1.138E+00
   1    5    6     2     2    2.8711E+00  1.9541E+00   9.1698E-01  0.000E+00  0.000E+00  0.000E+00  1.06677E+03  2.568E-01  1.200E+01  6.000E-01  1.086E+00
   1    6    6     2     3    9.1698E-01  9.1698E-01   0.0000E+00  0.000E+00  0.000E+00  0.000E+00  1.06180E+03  9.348E-03  1.200E+01  6.000E-01  1.003E+00
   1    7    6     2     4    0.0000E+00  0.0000E+00   0.0000E+00  0.000E+00  0.000E+00  0.000E+00  1.05708E+03  0.000E+00  1.200E+01  6.000E-01  1.000E+00
   1    8    6     2     5    0.0000E+00  0.0000E+00   0.0000E+00  0.000E+00  0.000E+00  0.000E+00  1.05236E+03  0.000E+00  1.200E+01  6.000E-01  1.000E+00
   1    3    5     3     1    1.0000E+01  2.8252E+00   7.1748E+00  0.000E+00  0.000E+00  0.000E+00  1.07555E+03  1.909E+00  9.636E+00  7.227E-01  1.955E+00
   1    3    6     3     2    7.1748E+00  2.1845E+00   4.9903E+00  0.000E+00  0.000E+00  0.000E+00  1.07264E+03  1.727E+00  8.909E+00  6.682E-01  1.635E+00
   1    3    7     3     3    4.9903E+00  1.0814E+00   3.9089E+00  0.000E+00  0.000E+00  0.000E+00  1.06987E+03  1.555E+00  8.218E+00  5.547E-01  9.747E-01
   1    4    8     3     4    3.9089E+00  1.5696E+00   2.3393E+00  0.000E+00  0.000E+00  0.000E+00  1.06682E+03  1.364E+00  7.455E+00  6.709E-01  1.170E+00
   1    5    8     3     5    2.3393E+00  1.5790E+00   7.6035E-01  0.000E+00  0.000E+00  0.000E+00  1.06362E+03  1.164E+00  6.655E+00  4.991E-01  1.582E+00
   1    6    8     3     6    7.6035E-01  5.5980E-01   2.0055E-01  0.000E+00  0.000E+00  0.000E+00  1.06158E+03  1.036E+00  6.145E+00  1.844E-01  1.518E+00
   1    5   10     4     1    1.0000E+01  9.0525E-01   9.0947E+00  0.000E+00  0.000E+00  0.000E+00  1.07835E+03  6.210E-01  1.000E+01  2.500E-01  1.207E+00
   1    5    9     4     2    9.0947E+00  1.7835E+00   7.3113E+00  0.000E+00  0.000E+00  0.000E+00  1.07148E+03  5.670E-01  1.000E+01  5.000E-01  1.189E+00
   1    6    8     4     3    7.3113E+00  1.2257E+00   6.0855E+00  0.000E+00  0.000E+00  0.000E+00  1.06368E+03  5.021E-01  1.000E+01  3.500E-01  1.167E+00
   1    6    8     5     1    6.2861E+00  9.9844E-01   5.2877E+00  0.000E+00  0.000E+00  0.000E+00  1.05855E+03  5.546E-01  1.090E+01  4.358E-01  7.636E-01
   1    7    7     5     2    5.2877E+00  1.6361E+00   3.6516E+00  0.000E+00  0.000E+00  0.000E+00  1.05401E+03  5.067E-01  9.331E+00  4.666E-01  1.169E+00
   1    8    7     5     3    3.6516E+00  9.2063E-01   2.7309E+00  0.000E+00  0.000E+00  0.000E+00  1.04970E+03  4.503E-01  7.624E+00  2.668E-01  1.150E+00
   1    8    6     5     4    2.7309E+00  5.5517E-01   2.1758E+00  0.000E+00  0.000E+00  0.000E+00  1.04666E+03  4.107E-01  6.511E+00  1.628E-01  1.137E+00
   1    9    6     6     1    2.1758E+00  1.9194E+00   2.5635E-01  0.000E+00  0.000E+00  0.000E+00  1.04293E+03  1.990E-01  1.200E+01  6.000E-01  1.066E+00
   1   10    7     6     2    2.5635E-01  2.5635E-01   0.0000E+00  0.000E+00  0.000E+00  0.000E+00  1.03820E+03  1.760E-02  1.200E+01  6.000E-01  1.006E+00
   1   11    7     6     3    0.0000E+00  0.0000E+00   0.0000E+00  0.000E+00  0.000E+00  0.000E+00  1.03364E+03  0.000E+00  1.200E+01  6.000E-01  1.000E+00
   1   12    7     6     4    0.0000E+00  0.0000E+00   0.0000E+00  0.000E+00  0.000E+00  0.000E+00  1.02909E+03  0.000E+00  1.200E+01  6.000E-01  3.740E-01
   1   13    7     6     5    0.0000E+00 -7.7034E-01   7.7034E-01  0.000E+00  0.000E+00  0.000E+00  1.02601E+03  9.985E-02  1.200E+01  2.400E-01 -1.070E+00
   1   14    9     7     1    1.5000E+02  1.9673E+00   1.4803E+02  0.000E+00  0.000E+00  0.000E+00  1.03987E+03  2.286E+00  5.529E+01  5.592E+00  1.173E-01
   1   13    8     7     2    1.4803E+02  2.9923E+00   1.4504E+02  0.000E+00  0.000E+00  0.000E+00  1.03477E+03  2.273E+00  5.523E+01  6.144E+00  1.623E-01
   1   13    7     7     3    1.4504E+02  2.5581E+00   1.4248E+02  0.000E+00  0.000E+00  0.000E+00  1.02968E+03  2.258E+00  5.516E+01  5.578E+00  1.529E-01
   1   13    6     8     1    1.4325E+02  8.9410E-01   1.4236E+02  0.000E+00  0.000E+00  0.000E+00  1.02464E+03  2.765E+00  4.010E+01  4.086E+00  7.294E-02
   1   13    5     8     2    1.4236E+02 -1.9860E+00   1.4434E+02  0.000E+00  0.000E+00  0.000E+00  1.01839E+03  2.769E+00  4.016E+01  4.092E+00 -1.618E-01
   1   13    4     8     3    1.4434E+02 -3.7636E+00   1.4811E+02  0.000E+00  0.000E+00  0.000E+00  1.01217E+03  2.790E+00  4.046E+01  4.123E+00 -3.043E-01
   1   13    3     8     4    1.4811E+02 -4.0852E+00   1.5219E+02  0.000E+00  0.000E+00  0.000E+00  1.00594E+03  2.818E+00  4.086E+01  4.164E+00 -3.270E-01
   1   13    2     8     5    1.5219E+02 -2.0754E+00   1.5427E+02  0.000E+00  0.000E+00  0.000E+00  9.99714E+02  2.839E+00  4.117E+01  4.196E+00 -1.649E-01
   1   13    1     8     6    1.5427E+02 -4.7283E-01   1.5474E+02  0.000E+00  0.000E+00  0.000E+00  9.94723E+02  2.848E+00  4.130E+01  2.525E+00 -6.242E-02



 UBDSV3 SAVING "           GW ET" ON UNIT  61 AT TIME STEP 15, STRESS PERIOD   2
 UBDSV3 SAVING "    UZF RECHARGE" ON UNIT  61 AT TIME STEP 15, STRESS PERIOD   2
 UBDSV3 SAVING " SURFACE LEAKAGE" ON UNIT  61 AT TIME STEP 15, STRESS PERIOD   2
 UBDSV3 SAVING "       HORT+DUNN" ON UNIT  61 AT TIME STEP 15, STRESS PERIOD   2
 UBDSV3 SAVING "  STORAGE CHANGE" ON UNIT  61 AT TIME STEP 15, STRESS PERIOD   2


UNSATURATED ZONE PACKAGE VOLUMETRIC BUDGET FOR  TIME STEP    15 STRESS PERIOD    2
  ------------------------------------------------------------------------------



     CUMULATIVE VOLUMES      L**3       RATES FOR THIS TIME STEP      L**3/T
     ------------------                 ------------------------

           IN:                                      IN:
           ---                                      ---
        INFILTRATION =   200450682.6777          INFILTRATION =          67.8000

          OUT:                                     OUT:
          ----                                     ----
              UZF ET =   326960897.1907                UZF ET =         124.3036
        UZF RECHARGE =    46561883.1721          UZF RECHARGE =           9.0552

            IN - OUT =  -173072097.6851              IN - OUT =         -65.5588

          STORAGE:                                 STORAGE:
          --------                                 --------
      STORAGE CHANGE =  -173026243.0929        STORAGE CHANGE =         -65.5369

 PERCENT DISCREPANCY IS DIFFERENCE BETWEEN IN-OUT MINUS CHANGE IN STORAGE
 DIVIDED BY THE AVERAGE OF IN AND OUT TIMES 100

 PERCENT DISCREPANCY =          -0.00     PERCENT DISCREPANCY =          -0.02






1
              HEAD IN LAYER   1 AT END OF TIME STEP  15 IN STRESS PERIOD    2
  ---------------------------------------------------------------------------

           1       2       3       4       5       6       7       8       9      10
 ...................................................................................
   1  1092.45 1088.64 6999.00 6999.00 6999.00 6999.00 6999.00 6999.00 6999.00 6999.00
   2  1089.23 1085.71 1078.99 6999.00 6999.00 1071.61 1070.87 1070.38 6999.00 6999.00
   3  6999.00 1077.31 1074.11 1069.77 1070.17 1069.37 1067.92 1067.82 6999.00 6999.00
   4  1067.82 1068.30 1066.40 1062.69 1061.52 1060.31 1061.18 1064.48 1063.72 6999.00
   5  1063.68 1061.22 1058.41 1056.12 1055.89 1056.68 1056.77 1059.14 1062.77 1065.26
   6  1058.99 1055.26 1051.82 1049.36 1049.79 1051.92 1053.57 1056.26 1059.20 1063.61
   7  1055.33 1049.58 1045.87 1043.50 1044.29 1046.83 1049.66 1052.36 1054.05 6999.00
   8  6999.00 1042.24 1039.80 1037.86 1038.93 1041.67 1043.85 1046.90 1049.11 6999.00
   9  6999.00 1035.30 1033.84 1032.56 1033.96 1036.86 1038.06 1040.43 1043.70 6999.00
  10  6999.00 1028.29 1027.98 1027.92 1029.57 1032.03 1033.46 1035.84 1039.94 1044.37
  11  6999.00 1019.58 1020.95 1024.02 1026.12 1028.39 1030.00 1032.60 1036.22 6999.00
  12  1001.16 1008.78 1013.94 1018.64 1022.29 1025.56 1027.97 1031.04 1034.78 6999.00
  13   994.91 1000.21 1006.92 1013.08 1018.88 1024.42 1029.22 1034.29 1036.41 6999.00
  14  6999.00 1005.81 1011.48 1016.19 1021.23 1026.06 1030.48 1035.38 1039.51 6999.00
  15  6999.00 6999.00 1018.83 1021.82 1025.56 1028.54 6999.00 6999.00 6999.00 6999.00

 HEAD WILL BE SAVED ON UNIT   58 AT END OF TIME STEP   15, STRESS PERIOD    2
1
  VOLUMETRIC BUDGET FOR ENTIRE MODEL AT END OF TIME STEP   15, STRESS PERIOD   2
  ------------------------------------------------------------------------------

     CUMULATIVE VOLUMES      L**3       RATES FOR THIS TIME STEP      L**3/T
     ------------------                 ------------------------

           IN:                                      IN:
           ---                                      ---
             STORAGE =       33818.8008               STORAGE =       1.8456E-02
       CONSTANT HEAD =           0.0000         CONSTANT HEAD =           0.0000
               WELLS =           0.0000                 WELLS =           0.0000
     HEAD DEP BOUNDS =     1100428.0000       HEAD DEP BOUNDS =           0.2084
      STREAM LEAKAGE =   230677152.0000        STREAM LEAKAGE =          43.4118
        UZF RECHARGE =    46561896.0000          UZF RECHARGE =           9.0552
               GW ET =           0.0000                 GW ET =           0.0000
     SURFACE LEAKAGE =           0.0000       SURFACE LEAKAGE =           0.0000

            TOTAL IN =   278373280.0000              TOTAL IN =          52.6938

          OUT:                                     OUT:
          ----                                     ----
             STORAGE =    17018988.0000               STORAGE =           5.4934
       CONSTANT HEAD =           0.0000         CONSTANT HEAD =           0.0000
               WELLS =   105119992.0000                 WELLS =          20.0000
     HEAD DEP BOUNDS =     1375218.2500       HEAD DEP BOUNDS =           0.2626
      STREAM LEAKAGE =    65141276.0000        STREAM LEAKAGE =          13.1533
        UZF RECHARGE =           0.0000          UZF RECHARGE =           0.0000
               GW ET =    89671904.0000                 GW ET =          13.7909
     SURFACE LEAKAGE =           0.0000       SURFACE LEAKAGE =           0.0000

           TOTAL OUT =   278327360.0000             TOTAL OUT =          52.7002

            IN - OUT =       45920.0000              IN - OUT =      -6.4125E-03

 PERCENT DISCREPANCY =           0.02     PERCENT DISCREPANCY =          -0.01






         TIME SUMMARY AT END OF TIME STEP   15 IN STRESS PERIOD    2
                    SECONDS     MINUTES      HOURS       DAYS        YEARS
                    -----------------------------------------------------------
   TIME STEP LENGTH 3.14103E+05  5235.0      87.251      3.6354     9.95332E-03
 STRESS PERIOD TIME 2.62800E+06  43800.      730.00      30.417     8.32763E-02
         TOTAL TIME 5.25600E+06  87600.      1460.0      60.833     0.16655    
1
1
                            STRESS PERIOD NO.    3, LENGTH =   2628000.    
                            -----------------------------------------------

                              NUMBER OF TIME STEPS =    15

                               MULTIPLIER FOR DELT =     1.100

                            INITIAL TIME STEP SIZE =   82713.07    

 WELL NO.  LAYER   ROW   COL   STRESS RATE         
 --------------------------------------------------
      1      1      6      4      -1.000    
      2      1      6      5      -1.000    
      3      1      7      4      -1.000    
      4      1      7      5      -1.000    
      5      1      8      4      -1.000    
      6      1      8      5      -1.000    
      7      1      9      4      -1.000    
      8      1      9      5      -1.000    
      9      1     10      4      -1.000    
     10      1     10      5      -1.000    

     10 WELLS

 REUSING NON-PARAMETER GHB CELLS FROM LAST STRESS PERIOD

      2 GHB CELLS

 REUSING STREAM SEGMENT DATA FROM LAST STRESS PERIOD



            AREAL INFILTRATION RATE
 READING ON UNIT   19 WITH FORMAT: (10F4.0)            

            1           2           3           4           5           6           7           8           9          10
 ........................................................................................................................
   1   1.0000E-08  2.0000E-08   0.000       0.000       0.000       0.000       0.000       0.000       0.000       0.000    
   2   2.0000E-08  1.0000E-08  2.0000E-08   0.000       0.000      8.0000E-08  8.0000E-08  5.0000E-08   0.000       0.000    
   3    0.000      5.0000E-08  1.0000E-08  1.0000E-08  8.0000E-08  8.0000E-08  5.0000E-08  5.0000E-08   0.000       0.000    
   4   8.0000E-08  5.0000E-08  1.0000E-08  1.0000E-08  1.0000E-08  1.0000E-08  1.0000E-08  1.0000E-08  2.0000E-08   0.000    
   5   8.0000E-08  5.0000E-08  1.0000E-08  1.0000E-08  1.0000E-08  1.0000E-08  1.0000E-08  1.0000E-08  1.0000E-08  1.0000E-08
   6   8.0000E-08  5.0000E-08  5.0000E-08  2.0000E-08  2.0000E-08  1.0000E-08  1.0000E-08  1.0000E-08  1.0000E-08  5.0000E-08
   7   8.0000E-08  5.0000E-08  5.0000E-08  2.0000E-08  2.0000E-08  1.0000E-08  1.0000E-08  2.0000E-08  2.0000E-08   0.000    
   8    0.000      5.0000E-08  5.0000E-08  2.0000E-08  2.0000E-08  1.0000E-08  1.0000E-08  2.0000E-08  5.0000E-08   0.000    
   9    0.000      5.0000E-08  5.0000E-08  2.0000E-08  2.0000E-08  1.0000E-08  1.0000E-08  2.0000E-08  5.0000E-08   0.000    
  10    0.000      5.0000E-08  5.0000E-08  2.0000E-08  2.0000E-08  1.0000E-08  1.0000E-08  2.0000E-08  5.0000E-08  8.0000E-08
  11    0.000      1.0000E-08  1.0000E-08  1.0000E-08  1.0000E-08  1.0000E-08  1.0000E-08  2.0000E-08  5.0000E-08   0.000    
  12   1.0000E-08  1.0000E-08  1.0000E-08  1.0000E-08  1.0000E-08  1.0000E-08  1.0000E-08  1.0000E-08  2.0000E-08   0.000    
  13   1.0000E-08  1.0000E-08  2.0000E-08  2.0000E-08  2.0000E-08  2.0000E-08  2.0000E-08  1.0000E-08  1.0000E-08   0.000    
  14    0.000      2.0000E-08  5.0000E-08  5.0000E-08  5.0000E-08  5.0000E-08  5.0000E-08  2.0000E-08  1.0000E-08   0.000    
  15    0.000       0.000      8.0000E-08  8.0000E-08  8.0000E-08  8.0000E-08   0.000       0.000       0.000       0.000    

USING ET RATE FROM PREVIOUS STRESS PERIOD. CURRENT PERIOD IS:       3

 USING ET EXTINCTION DEPTH FROM PREVIOUS STRESS PERIOD. CURRENT PERIOD IS:       3

 USING EXTINCTION WATER CONTENT FROM PREVIOUS STRESS PERIOD. CURRENT PERIOD IS:       3
 
 SOLVING FOR HEAD 

     6 ITERATIONS FOR TIME STEP   1 IN STRESS PERIOD    3

 MAXIMUM HEAD CHANGE FOR EACH ITERATION:

    HEAD CHANGE   HEAD CHANGE   HEAD CHANGE   HEAD CHANGE   HEAD CHANGE
  LAYER,ROW,COL LAYER,ROW,COL LAYER,ROW,COL LAYER,ROW,COL LAYER,ROW,COL
 ----------------------------------------------------------------------
     0.1336E-01    0.4466E-02    0.1497E-02    0.5055E-03    0.2014E-03
  (  1, 10,  5) (  1,  9,  4) (  1,  8,  4) (  1,  8,  4) (  1,  9,  4)
     0.9877E-04
  (  1, 13,  5)


 OUTPUT CONTROL FOR STRESS PERIOD    3   TIME STEP    1
    PRINT BUDGET
    SAVE BUDGET

            WELLS   PERIOD    3   STEP   1
 WELL      1   LAYER   1   ROW     6   COL     4   RATE    -1.00000    
 WELL      2   LAYER   1   ROW     6   COL     5   RATE    -1.00000    
 WELL      3   LAYER   1   ROW     7   COL     4   RATE    -1.00000    
 WELL      4   LAYER   1   ROW     7   COL     5   RATE    -1.00000    
 WELL      5   LAYER   1   ROW     8   COL     4   RATE    -1.00000    
 WELL      6   LAYER   1   ROW     8   COL     5   RATE    -1.00000    
 WELL      7   LAYER   1   ROW     9   COL     4   RATE    -1.00000    
 WELL      8   LAYER   1   ROW     9   COL     5   RATE    -1.00000    
 WELL      9   LAYER   1   ROW    10   COL     4   RATE    -1.00000    
 WELL     10   LAYER   1   ROW    10   COL     5   RATE    -1.00000    

  HEAD DEP BOUNDS   PERIOD    3   STEP   1
 BOUNDARY      1   LAYER   1   ROW    13   COL     1   RATE   -0.262623    
 BOUNDARY      2   LAYER   1   ROW    14   COL     9   RATE    0.208426    



 STREAM LISTING     PERIOD      3   STEP        1

 LAYER ROW COL. STREAM  RCH.  FLOW INTO     FLOW TO   FLOW OUT OF   OVRLND.     DIRECT     STREAM       STREAM     STREAM     STREAM   STREAMBED  STREAMBED
                SEG.NO.  NO.  STRM. RCH.    AQUIFER    STRM. RCH.    RUNOFF     PRECIP       ET          HEAD       DEPTH      WIDTH   CONDCTNC.   GRADIENT

   1    1    1     1     1    2.5000E+01  1.0284E+00   2.3972E+01  0.000E+00  0.000E+00  0.000E+00  1.09422E+03  1.172E+00  1.296E+01  5.832E-01  5.878E-01
   1    2    2     1     2    2.3972E+01  3.0612E+00   2.0910E+01  0.000E+00  0.000E+00  0.000E+00  1.08920E+03  1.141E+00  1.254E+01  8.776E-01  1.163E+00
   1    3    3     1     3    2.0910E+01  2.9057E+00   1.8005E+01  0.000E+00  0.000E+00  0.000E+00  1.08351E+03  1.091E+00  1.184E+01  7.102E-01  1.364E+00
   1    3    4     1     4    1.8005E+01  2.4682E+00   1.5536E+01  0.000E+00  0.000E+00  0.000E+00  1.07845E+03  1.045E+00  1.099E+01  6.101E-01  1.348E+00
   1    4    5     2     1    5.5365E+00  2.6632E+00   2.8733E+00  0.000E+00  0.000E+00  0.000E+00  1.07235E+03  4.144E-01  1.200E+01  7.800E-01  1.138E+00
   1    5    6     2     2    2.8733E+00  1.9542E+00   9.1909E-01  0.000E+00  0.000E+00  0.000E+00  1.06677E+03  2.570E-01  1.200E+01  6.000E-01  1.086E+00
   1    6    6     2     3    9.1909E-01  9.1909E-01   0.0000E+00  0.000E+00  0.000E+00  0.000E+00  1.06180E+03  9.360E-03  1.200E+01  6.000E-01  1.003E+00
   1    7    6     2     4    0.0000E+00  0.0000E+00   0.0000E+00  0.000E+00  0.000E+00  0.000E+00  1.05708E+03  0.000E+00  1.200E+01  6.000E-01  1.000E+00
   1    8    6     2     5    0.0000E+00  0.0000E+00   0.0000E+00  0.000E+00  0.000E+00  0.000E+00  1.05236E+03  0.000E+00  1.200E+01  6.000E-01  1.000E+00
   1    3    5     3     1    1.0000E+01  2.8252E+00   7.1748E+00  0.000E+00  0.000E+00  0.000E+00  1.07555E+03  1.909E+00  9.636E+00  7.227E-01  1.955E+00
   1    3    6     3     2    7.1748E+00  2.1843E+00   4.9905E+00  0.000E+00  0.000E+00  0.000E+00  1.07264E+03  1.727E+00  8.909E+00  6.682E-01  1.634E+00
   1    3    7     3     3    4.9905E+00  1.0807E+00   3.9098E+00  0.000E+00  0.000E+00  0.000E+00  1.06987E+03  1.555E+00  8.218E+00  5.547E-01  9.741E-01
   1    4    8     3     4    3.9098E+00  1.5678E+00   2.3420E+00  0.000E+00  0.000E+00  0.000E+00  1.06682E+03  1.364E+00  7.455E+00  6.709E-01  1.168E+00
   1    5    8     3     5    2.3420E+00  1.5790E+00   7.6303E-01  0.000E+00  0.000E+00  0.000E+00  1.06362E+03  1.164E+00  6.655E+00  4.991E-01  1.582E+00
   1    6    8     3     6    7.6303E-01  5.5980E-01   2.0323E-01  0.000E+00  0.000E+00  0.000E+00  1.06158E+03  1.036E+00  6.145E+00  1.844E-01  1.518E+00
   1    5   10     4     1    1.0000E+01  9.0525E-01   9.0947E+00  0.000E+00  0.000E+00  0.000E+00  1.07835E+03  6.210E-01  1.000E+01  2.500E-01  1.207E+00
   1    5    9     4     2    9.0947E+00  1.7835E+00   7.3113E+00  0.000E+00  0.000E+00  0.000E+00  1.07148E+03  5.670E-01  1.000E+01  5.000E-01  1.189E+00
   1    6    8     4     3    7.3113E+00  1.2257E+00   6.0855E+00  0.000E+00  0.000E+00  0.000E+00  1.06368E+03  5.021E-01  1.000E+01  3.500E-01  1.167E+00
   1    6    8     5     1    6.2888E+00  9.9760E-01   5.2912E+00  0.000E+00  0.000E+00  0.000E+00  1.05855E+03  5.547E-01  1.090E+01  4.360E-01  7.628E-01
   1    7    7     5     2    5.2912E+00  1.6369E+00   3.6543E+00  0.000E+00  0.000E+00  0.000E+00  1.05401E+03  5.068E-01  9.335E+00  4.668E-01  1.169E+00
   1    8    7     5     3    3.6543E+00  9.2111E-01   2.7332E+00  0.000E+00  0.000E+00  0.000E+00  1.04970E+03  4.504E-01  7.627E+00  2.670E-01  1.150E+00
   1    8    6     5     4    2.7332E+00  5.5548E-01   2.1777E+00  0.000E+00  0.000E+00  0.000E+00  1.04666E+03  4.108E-01  6.514E+00  1.629E-01  1.137E+00
   1    9    6     6     1    2.1777E+00  1.9195E+00   2.5820E-01  0.000E+00  0.000E+00  0.000E+00  1.04293E+03  1.992E-01  1.200E+01  6.000E-01  1.066E+00
   1   10    7     6     2    2.5820E-01  2.5820E-01   0.0000E+00  0.000E+00  0.000E+00  0.000E+00  1.03820E+03  1.768E-02  1.200E+01  6.000E-01  1.006E+00
   1   11    7     6     3    0.0000E+00  0.0000E+00   0.0000E+00  0.000E+00  0.000E+00  0.000E+00  1.03364E+03  0.000E+00  1.200E+01  6.000E-01  1.000E+00
   1   12    7     6     4    0.0000E+00  0.0000E+00   0.0000E+00  0.000E+00  0.000E+00  0.000E+00  1.02909E+03  0.000E+00  1.200E+01  6.000E-01  3.730E-01
   1   13    7     6     5    0.0000E+00 -7.7039E-01   7.7039E-01  0.000E+00  0.000E+00  0.000E+00  1.02601E+03  9.986E-02  1.200E+01  2.400E-01 -1.070E+00
   1   14    9     7     1    1.5000E+02  1.9663E+00   1.4803E+02  0.000E+00  0.000E+00  0.000E+00  1.03987E+03  2.286E+00  5.529E+01  5.592E+00  1.172E-01
   1   13    8     7     2    1.4803E+02  2.9902E+00   1.4504E+02  0.000E+00  0.000E+00  0.000E+00  1.03477E+03  2.273E+00  5.523E+01  6.144E+00  1.622E-01
   1   13    7     7     3    1.4504E+02  2.5572E+00   1.4249E+02  0.000E+00  0.000E+00  0.000E+00  1.02968E+03  2.258E+00  5.516E+01  5.578E+00  1.528E-01
   1   13    6     8     1    1.4326E+02  8.9107E-01   1.4237E+02  0.000E+00  0.000E+00  0.000E+00  1.02464E+03  2.765E+00  4.010E+01  4.086E+00  7.269E-02
   1   13    5     8     2    1.4237E+02 -1.9937E+00   1.4436E+02  0.000E+00  0.000E+00  0.000E+00  1.01839E+03  2.769E+00  4.016E+01  4.092E+00 -1.624E-01
   1   13    4     8     3    1.4436E+02 -3.7690E+00   1.4813E+02  0.000E+00  0.000E+00  0.000E+00  1.01217E+03  2.790E+00  4.046E+01  4.123E+00 -3.047E-01
   1   13    3     8     4    1.4813E+02 -4.0915E+00   1.5222E+02  0.000E+00  0.000E+00  0.000E+00  1.00594E+03  2.818E+00  4.086E+01  4.164E+00 -3.275E-01
   1   13    2     8     5    1.5222E+02 -2.0766E+00   1.5430E+02  0.000E+00  0.000E+00  0.000E+00  9.99715E+02  2.840E+00  4.117E+01  4.196E+00 -1.650E-01
   1   13    1     8     6    1.5430E+02 -4.7393E-01   1.5477E+02  0.000E+00  0.000E+00  0.000E+00  9.94723E+02  2.848E+00  4.130E+01  2.525E+00 -6.256E-02



 UBDSV3 SAVING "           GW ET" ON UNIT  61 AT TIME STEP  1, STRESS PERIOD   3
 UBDSV3 SAVING "    UZF RECHARGE" ON UNIT  61 AT TIME STEP  1, STRESS PERIOD   3
 UBDSV3 SAVING " SURFACE LEAKAGE" ON UNIT  61 AT TIME STEP  1, STRESS PERIOD   3
 UBDSV3 SAVING "       HORT+DUNN" ON UNIT  61 AT TIME STEP  1, STRESS PERIOD   3
 UBDSV3 SAVING "  STORAGE CHANGE" ON UNIT  61 AT TIME STEP  1, STRESS PERIOD   3


UNSATURATED ZONE PACKAGE VOLUMETRIC BUDGET FOR  TIME STEP     1 STRESS PERIOD    3
  ------------------------------------------------------------------------------



     CUMULATIVE VOLUMES      L**3       RATES FOR THIS TIME STEP      L**3/T
     ------------------                 ------------------------

           IN:                                      IN:
           ---                                      ---
        INFILTRATION =   207460615.3359          INFILTRATION =          84.7500

          OUT:                                     OUT:
          ----                                     ----
              UZF ET =   337240505.7561                UZF ET =         124.2803
        UZF RECHARGE =    47471226.0619          UZF RECHARGE =          10.9939

            IN - OUT =  -177251116.4820              IN - OUT =         -50.5243

          STORAGE:                                 STORAGE:
          --------                                 --------
      STORAGE CHANGE =  -177204766.9183        STORAGE CHANGE =         -50.5183

 PERCENT DISCREPANCY IS DIFFERENCE BETWEEN IN-OUT MINUS CHANGE IN STORAGE
 DIVIDED BY THE AVERAGE OF IN AND OUT TIMES 100

 PERCENT DISCREPANCY =          -0.00     PERCENT DISCREPANCY =          -0.00






1
  VOLUMETRIC BUDGET FOR ENTIRE MODEL AT END OF TIME STEP    1, STRESS PERIOD   3
  ------------------------------------------------------------------------------

     CUMULATIVE VOLUMES      L**3       RATES FOR THIS TIME STEP      L**3/T
     ------------------                 ------------------------

           IN:                                      IN:
           ---                                      ---
             STORAGE =       37183.5625               STORAGE =       4.0680E-02
       CONSTANT HEAD =           0.0000         CONSTANT HEAD =           0.0000
               WELLS =           0.0000                 WELLS =           0.0000
     HEAD DEP BOUNDS =     1117667.5000       HEAD DEP BOUNDS =           0.2084
      STREAM LEAKAGE =   234267296.0000        STREAM LEAKAGE =          43.4048
        UZF RECHARGE =    47471240.0000          UZF RECHARGE =          10.9939
               GW ET =           0.0000                 GW ET =           0.0000
     SURFACE LEAKAGE =           0.0000       SURFACE LEAKAGE =           0.0000

            TOTAL IN =   282893376.0000              TOTAL IN =          54.6478

          OUT:                                     OUT:
          ----                                     ----
             STORAGE =    18458662.0000               STORAGE =          17.4056
       CONSTANT HEAD =           0.0000         CONSTANT HEAD =           0.0000
               WELLS =   105947120.0000                 WELLS =          10.0000
     HEAD DEP BOUNDS =     1396940.6250       HEAD DEP BOUNDS =           0.2626
      STREAM LEAKAGE =    66231024.0000        STREAM LEAKAGE =          13.1751
        UZF RECHARGE =           0.0000          UZF RECHARGE =           0.0000
               GW ET =    90813632.0000                 GW ET =          13.8035
     SURFACE LEAKAGE =           0.0000       SURFACE LEAKAGE =           0.0000

           TOTAL OUT =   282847392.0000             TOTAL OUT =          54.6468

            IN - OUT =       45984.0000              IN - OUT =       1.0529E-03

 PERCENT DISCREPANCY =           0.02     PERCENT DISCREPANCY =           0.00






         TIME SUMMARY AT END OF TIME STEP    1 IN STRESS PERIOD    3
                    SECONDS     MINUTES      HOURS       DAYS        YEARS
                    -----------------------------------------------------------
   TIME STEP LENGTH  82713.      1378.6      22.976     0.95733     2.62102E-03
 STRESS PERIOD TIME  82713.      1378.6      22.976     0.95733     2.62102E-03
         TOTAL TIME 5.33871E+06  88979.      1483.0      61.791     0.16917    
1
 
 SOLVING FOR HEAD 
     6 ITERATIONS FOR TIME STEP   2 IN STRESS PERIOD    3

 MAXIMUM HEAD CHANGE FOR EACH ITERATION:

    HEAD CHANGE   HEAD CHANGE   HEAD CHANGE   HEAD CHANGE   HEAD CHANGE
  LAYER,ROW,COL LAYER,ROW,COL LAYER,ROW,COL LAYER,ROW,COL LAYER,ROW,COL
 ----------------------------------------------------------------------
     0.1450E-01    0.4829E-02    0.1644E-02    0.5554E-03    0.2026E-03
  (  1,  9,  4) (  1,  9,  4) (  1,  8,  4) (  1,  9,  4) (  1,  6,  5)
     0.8699E-04
  (  1, 10,  4)


 NO OUTPUT CONTROL FOR STRESS PERIOD    3   TIME STEP    2
 
 SOLVING FOR HEAD 
     9 ITERATIONS FOR TIME STEP   3 IN STRESS PERIOD    3

 MAXIMUM HEAD CHANGE FOR EACH ITERATION:

    HEAD CHANGE   HEAD CHANGE   HEAD CHANGE   HEAD CHANGE   HEAD CHANGE
  LAYER,ROW,COL LAYER,ROW,COL LAYER,ROW,COL LAYER,ROW,COL LAYER,ROW,COL
 ----------------------------------------------------------------------
     0.2918E-01    0.1495E-01    0.7695E-02    0.3921E-02    0.2035E-02
  (  1,  3,  6) (  1,  3,  6) (  1,  3,  6) (  1,  3,  6) (  1,  3,  6)
     0.1003E-02    0.5578E-03    0.2902E-03    0.1176E-03
  (  1,  3,  6) (  1,  3,  6) (  1,  3,  6) (  1,  3,  6)


 NO OUTPUT CONTROL FOR STRESS PERIOD    3   TIME STEP    3
 
 SOLVING FOR HEAD 
     9 ITERATIONS FOR TIME STEP   4 IN STRESS PERIOD    3

 MAXIMUM HEAD CHANGE FOR EACH ITERATION:

    HEAD CHANGE   HEAD CHANGE   HEAD CHANGE   HEAD CHANGE   HEAD CHANGE
  LAYER,ROW,COL LAYER,ROW,COL LAYER,ROW,COL LAYER,ROW,COL LAYER,ROW,COL
 ----------------------------------------------------------------------
     0.3283E-01    0.1680E-01    0.8578E-02    0.4389E-02    0.2247E-02
  (  1,  3,  6) (  1,  3,  6) (  1,  3,  6) (  1,  3,  6) (  1,  3,  6)
     0.1101E-02    0.6114E-03    0.3179E-03    0.1287E-03
  (  1,  3,  6) (  1,  3,  6) (  1,  3,  6) (  1,  3,  6)


 NO OUTPUT CONTROL FOR STRESS PERIOD    3   TIME STEP    4
 
 SOLVING FOR HEAD 
     9 ITERATIONS FOR TIME STEP   5 IN STRESS PERIOD    3

 MAXIMUM HEAD CHANGE FOR EACH ITERATION:

    HEAD CHANGE   HEAD CHANGE   HEAD CHANGE   HEAD CHANGE   HEAD CHANGE
  LAYER,ROW,COL LAYER,ROW,COL LAYER,ROW,COL LAYER,ROW,COL LAYER,ROW,COL
 ----------------------------------------------------------------------
     0.3298E-01    0.1681E-01    0.8574E-02    0.4357E-02    0.2228E-02
  (  1,  3,  6) (  1,  3,  6) (  1,  3,  6) (  1,  3,  6) (  1,  3,  6)
     0.1088E-02    0.5743E-03    0.3293E-03    0.1372E-03
  (  1,  3,  6) (  1,  3,  6) (  1,  3,  6) (  1,  3,  6)


 OUTPUT CONTROL FOR STRESS PERIOD    3   TIME STEP    5
    PRINT BUDGET
    SAVE BUDGET

            WELLS   PERIOD    3   STEP   5
 WELL      1   LAYER   1   ROW     6   COL     4   RATE    -1.00000    
 WELL      2   LAYER   1   ROW     6   COL     5   RATE    -1.00000    
 WELL      3   LAYER   1   ROW     7   COL     4   RATE    -1.00000    
 WELL      4   LAYER   1   ROW     7   COL     5   RATE    -1.00000    
 WELL      5   LAYER   1   ROW     8   COL     4   RATE    -1.00000    
 WELL      6   LAYER   1   ROW     8   COL     5   RATE    -1.00000    
 WELL      7   LAYER   1   ROW     9   COL     4   RATE    -1.00000    
 WELL      8   LAYER   1   ROW     9   COL     5   RATE    -1.00000    
 WELL      9   LAYER   1   ROW    10   COL     4   RATE    -1.00000    
 WELL     10   LAYER   1   ROW    10   COL     5   RATE    -1.00000    

  HEAD DEP BOUNDS   PERIOD    3   STEP   5
 BOUNDARY      1   LAYER   1   ROW    13   COL     1   RATE   -0.262716    
 BOUNDARY      2   LAYER   1   ROW    14   COL     9   RATE    0.208392    



 STREAM LISTING     PERIOD      3   STEP        5

 LAYER ROW COL. STREAM  RCH.  FLOW INTO     FLOW TO   FLOW OUT OF   OVRLND.     DIRECT     STREAM       STREAM     STREAM     STREAM   STREAMBED  STREAMBED
                SEG.NO.  NO.  STRM. RCH.    AQUIFER    STRM. RCH.    RUNOFF     PRECIP       ET          HEAD       DEPTH      WIDTH   CONDCTNC.   GRADIENT

   1    1    1     1     1    2.5000E+01  1.0234E+00   2.3977E+01  0.000E+00  0.000E+00  0.000E+00  1.09422E+03  1.173E+00  1.296E+01  5.832E-01  5.849E-01
   1    2    2     1     2    2.3977E+01  3.0536E+00   2.0923E+01  0.000E+00  0.000E+00  0.000E+00  1.08920E+03  1.141E+00  1.254E+01  8.777E-01  1.160E+00
   1    3    3     1     3    2.0923E+01  2.9067E+00   1.8016E+01  0.000E+00  0.000E+00  0.000E+00  1.08351E+03  1.091E+00  1.184E+01  7.104E-01  1.364E+00
   1    3    4     1     4    1.8016E+01  2.4691E+00   1.5547E+01  0.000E+00  0.000E+00  0.000E+00  1.07845E+03  1.046E+00  1.100E+01  6.103E-01  1.349E+00
   1    4    5     2     1    5.5472E+00  2.6637E+00   2.8835E+00  0.000E+00  0.000E+00  0.000E+00  1.07235E+03  4.150E-01  1.200E+01  7.800E-01  1.138E+00
   1    5    6     2     2    2.8835E+00  1.9547E+00   9.2881E-01  0.000E+00  0.000E+00  0.000E+00  1.06677E+03  2.578E-01  1.200E+01  6.000E-01  1.086E+00
   1    6    6     2     3    9.2881E-01  9.2881E-01   0.0000E+00  0.000E+00  0.000E+00  0.000E+00  1.06180E+03  9.419E-03  1.200E+01  6.000E-01  1.003E+00
   1    7    6     2     4    0.0000E+00  0.0000E+00   0.0000E+00  0.000E+00  0.000E+00  0.000E+00  1.05708E+03  0.000E+00  1.200E+01  6.000E-01  1.000E+00
   1    8    6     2     5    0.0000E+00  0.0000E+00   0.0000E+00  0.000E+00  0.000E+00  0.000E+00  1.05236E+03  0.000E+00  1.200E+01  6.000E-01  1.000E+00
   1    3    5     3     1    1.0000E+01  2.8252E+00   7.1748E+00  0.000E+00  0.000E+00  0.000E+00  1.07555E+03  1.909E+00  9.636E+00  7.227E-01  1.955E+00
   1    3    6     3     2    7.1748E+00  2.0546E+00   5.1202E+00  0.000E+00  0.000E+00  0.000E+00  1.07264E+03  1.727E+00  8.909E+00  6.682E-01  1.537E+00
   1    3    7     3     3    5.1202E+00  1.0722E+00   4.0480E+00  0.000E+00  0.000E+00  0.000E+00  1.06987E+03  1.555E+00  8.218E+00  5.547E-01  9.664E-01
   1    4    8     3     4    4.0480E+00  1.5596E+00   2.4884E+00  0.000E+00  0.000E+00  0.000E+00  1.06682E+03  1.364E+00  7.455E+00  6.709E-01  1.162E+00
   1    5    8     3     5    2.4884E+00  1.5790E+00   9.0943E-01  0.000E+00  0.000E+00  0.000E+00  1.06362E+03  1.164E+00  6.655E+00  4.991E-01  1.582E+00
   1    6    8     3     6    9.0943E-01  5.5980E-01   3.4964E-01  0.000E+00  0.000E+00  0.000E+00  1.06158E+03  1.036E+00  6.145E+00  1.844E-01  1.518E+00
   1    5   10     4     1    1.0000E+01  9.0525E-01   9.0947E+00  0.000E+00  0.000E+00  0.000E+00  1.07835E+03  6.210E-01  1.000E+01  2.500E-01  1.207E+00
   1    5    9     4     2    9.0947E+00  1.7835E+00   7.3113E+00  0.000E+00  0.000E+00  0.000E+00  1.07148E+03  5.670E-01  1.000E+01  5.000E-01  1.189E+00
   1    6    8     4     3    7.3113E+00  1.2257E+00   6.0855E+00  0.000E+00  0.000E+00  0.000E+00  1.06368E+03  5.021E-01  1.000E+01  3.500E-01  1.167E+00
   1    6    8     5     1    6.4352E+00  1.0080E+00   5.4272E+00  0.000E+00  0.000E+00  0.000E+00  1.05856E+03  5.594E-01  1.106E+01  4.423E-01  7.597E-01
   1    7    7     5     2    5.4272E+00  1.6657E+00   3.7615E+00  0.000E+00  0.000E+00  0.000E+00  1.05401E+03  5.116E-01  9.487E+00  4.743E-01  1.171E+00
   1    8    7     5     3    3.7615E+00  9.3927E-01   2.8222E+00  0.000E+00  0.000E+00  0.000E+00  1.04971E+03  4.552E-01  7.767E+00  2.718E-01  1.152E+00
   1    8    6     5     4    2.8222E+00  5.6746E-01   2.2548E+00  0.000E+00  0.000E+00  0.000E+00  1.04667E+03  4.156E-01  6.645E+00  1.661E-01  1.139E+00
   1    9    6     6     1    2.2548E+00  1.9239E+00   3.3089E-01  0.000E+00  0.000E+00  0.000E+00  1.04293E+03  2.065E-01  1.200E+01  6.000E-01  1.069E+00
   1   10    7     6     2    3.3089E-01  3.3089E-01   0.0000E+00  0.000E+00  0.000E+00  0.000E+00  1.03820E+03  2.051E-02  1.200E+01  6.000E-01  1.007E+00
   1   11    7     6     3    0.0000E+00  0.0000E+00   0.0000E+00  0.000E+00  0.000E+00  0.000E+00  1.03364E+03  0.000E+00  1.200E+01  6.000E-01  1.000E+00
   1   12    7     6     4    0.0000E+00  0.0000E+00   0.0000E+00  0.000E+00  0.000E+00  0.000E+00  1.02909E+03  0.000E+00  1.200E+01  6.000E-01  3.677E-01
   1   13    7     6     5    0.0000E+00 -7.7076E-01   7.7076E-01  0.000E+00  0.000E+00  0.000E+00  1.02601E+03  9.989E-02  1.200E+01  2.400E-01 -1.071E+00
   1   14    9     7     1    1.5000E+02  1.9614E+00   1.4804E+02  0.000E+00  0.000E+00  0.000E+00  1.03987E+03  2.286E+00  5.529E+01  5.592E+00  1.169E-01
   1   13    8     7     2    1.4804E+02  2.9821E+00   1.4506E+02  0.000E+00  0.000E+00  0.000E+00  1.03477E+03  2.273E+00  5.523E+01  6.144E+00  1.618E-01
   1   13    7     7     3    1.4506E+02  2.5489E+00   1.4251E+02  0.000E+00  0.000E+00  0.000E+00  1.02968E+03  2.258E+00  5.516E+01  5.578E+00  1.523E-01
   1   13    6     8     1    1.4328E+02  8.8021E-01   1.4240E+02  0.000E+00  0.000E+00  0.000E+00  1.02464E+03  2.766E+00  4.010E+01  4.087E+00  7.180E-02
   1   13    5     8     2    1.4240E+02 -2.0223E+00   1.4442E+02  0.000E+00  0.000E+00  0.000E+00  1.01839E+03  2.770E+00  4.016E+01  4.093E+00 -1.647E-01
   1   13    4     8     3    1.4442E+02 -3.7995E+00   1.4822E+02  0.000E+00  0.000E+00  0.000E+00  1.01217E+03  2.791E+00  4.047E+01  4.124E+00 -3.071E-01
   1   13    3     8     4    1.4822E+02 -4.1157E+00   1.5234E+02  0.000E+00  0.000E+00  0.000E+00  1.00594E+03  2.819E+00  4.087E+01  4.165E+00 -3.294E-01
   1   13    2     8     5    1.5234E+02 -2.0843E+00   1.5442E+02  0.000E+00  0.000E+00  0.000E+00  9.99715E+02  2.840E+00  4.119E+01  4.197E+00 -1.655E-01
   1   13    1     8     6    1.5442E+02 -4.7808E-01   1.5490E+02  0.000E+00  0.000E+00  0.000E+00  9.94724E+02  2.849E+00  4.132E+01  2.526E+00 -6.309E-02



 UBDSV3 SAVING "           GW ET" ON UNIT  61 AT TIME STEP  5, STRESS PERIOD   3
 UBDSV3 SAVING "    UZF RECHARGE" ON UNIT  61 AT TIME STEP  5, STRESS PERIOD   3
 UBDSV3 SAVING " SURFACE LEAKAGE" ON UNIT  61 AT TIME STEP  5, STRESS PERIOD   3
 UBDSV3 SAVING "       HORT+DUNN" ON UNIT  61 AT TIME STEP  5, STRESS PERIOD   3
 UBDSV3 SAVING "  STORAGE CHANGE" ON UNIT  61 AT TIME STEP  5, STRESS PERIOD   3


UNSATURATED ZONE PACKAGE VOLUMETRIC BUDGET FOR  TIME STEP     5 STRESS PERIOD    3
  ------------------------------------------------------------------------------



     CUMULATIVE VOLUMES      L**3       RATES FOR THIS TIME STEP      L**3/T
     ------------------                 ------------------------

           IN:                                      IN:
           ---                                      ---
        INFILTRATION =   243247024.4336          INFILTRATION =          84.7500

          OUT:                                     OUT:
          ----                                     ----
              UZF ET =   389709805.2434                UZF ET =         124.2422
        UZF RECHARGE =    52644770.6779          UZF RECHARGE =          12.7558

            IN - OUT =  -199107551.4877              IN - OUT =         -52.2479

          STORAGE:                                 STORAGE:
          --------                                 --------
      STORAGE CHANGE =  -199056055.0440        STORAGE CHANGE =         -52.2327

 PERCENT DISCREPANCY IS DIFFERENCE BETWEEN IN-OUT MINUS CHANGE IN STORAGE
 DIVIDED BY THE AVERAGE OF IN AND OUT TIMES 100

 PERCENT DISCREPANCY =          -0.00     PERCENT DISCREPANCY =          -0.01






1
  VOLUMETRIC BUDGET FOR ENTIRE MODEL AT END OF TIME STEP    5, STRESS PERIOD   3
  ------------------------------------------------------------------------------

     CUMULATIVE VOLUMES      L**3       RATES FOR THIS TIME STEP      L**3/T
     ------------------                 ------------------------

           IN:                                      IN:
           ---                                      ---
             STORAGE =       50599.7227               STORAGE =       3.7720E-02
       CONSTANT HEAD =           0.0000         CONSTANT HEAD =           0.0000
               WELLS =           0.0000                 WELLS =           0.0000
     HEAD DEP BOUNDS =     1205667.3750       HEAD DEP BOUNDS =           0.2084
      STREAM LEAKAGE =   252586576.0000        STREAM LEAKAGE =          43.3726
        UZF RECHARGE =    52644784.0000          UZF RECHARGE =          12.7558
               GW ET =           0.0000                 GW ET =           0.0000
     SURFACE LEAKAGE =           0.0000       SURFACE LEAKAGE =           0.0000

            TOTAL IN =   306487616.0000              TOTAL IN =          56.3745

          OUT:                                     OUT:
          ----                                     ----
             STORAGE =    26281056.0000               STORAGE =          18.9353
       CONSTANT HEAD =           0.0000         CONSTANT HEAD =           0.0000
               WELLS =   110169704.0000                 WELLS =          10.0000
     HEAD DEP BOUNDS =     1507860.8750       HEAD DEP BOUNDS =           0.2627
      STREAM LEAKAGE =    71819832.0000        STREAM LEAKAGE =          13.2707
        UZF RECHARGE =           0.0000          UZF RECHARGE =           0.0000
               GW ET =    96651752.0000                 GW ET =          13.8431
     SURFACE LEAKAGE =           0.0000       SURFACE LEAKAGE =           0.0000

           TOTAL OUT =   306430176.0000             TOTAL OUT =          56.3118

            IN - OUT =       57440.0000              IN - OUT =       6.2664E-02

 PERCENT DISCREPANCY =           0.02     PERCENT DISCREPANCY =           0.11






         TIME SUMMARY AT END OF TIME STEP    5 IN STRESS PERIOD    3
                    SECONDS     MINUTES      HOURS       DAYS        YEARS
                    -----------------------------------------------------------
   TIME STEP LENGTH 1.21100E+05  2018.3      33.639      1.4016     3.83743E-03
 STRESS PERIOD TIME 5.04972E+05  8416.2      140.27      5.8446     1.60016E-02
         TOTAL TIME 5.76097E+06  96016.      1600.3      66.678     0.18255    
1
 
 SOLVING FOR HEAD 
     9 ITERATIONS FOR TIME STEP   6 IN STRESS PERIOD    3

 MAXIMUM HEAD CHANGE FOR EACH ITERATION:

    HEAD CHANGE   HEAD CHANGE   HEAD CHANGE   HEAD CHANGE   HEAD CHANGE
  LAYER,ROW,COL LAYER,ROW,COL LAYER,ROW,COL LAYER,ROW,COL LAYER,ROW,COL
 ----------------------------------------------------------------------
     0.3331E-01    0.1701E-01    0.8727E-02    0.4407E-02    0.2290E-02
  (  1,  3,  6) (  1,  3,  6) (  1,  3,  6) (  1,  3,  6) (  1,  3,  6)
     0.1162E-02    0.6234E-03    0.2812E-03    0.1347E-03
  (  1,  3,  6) (  1,  3,  6) (  1,  3,  6) (  1,  3,  6)


 NO OUTPUT CONTROL FOR STRESS PERIOD    3   TIME STEP    6
 
 SOLVING FOR HEAD 
     9 ITERATIONS FOR TIME STEP   7 IN STRESS PERIOD    3

 MAXIMUM HEAD CHANGE FOR EACH ITERATION:

    HEAD CHANGE   HEAD CHANGE   HEAD CHANGE   HEAD CHANGE   HEAD CHANGE
  LAYER,ROW,COL LAYER,ROW,COL LAYER,ROW,COL LAYER,ROW,COL LAYER,ROW,COL
 ----------------------------------------------------------------------
     0.3337E-01    0.1705E-01    0.8720E-02    0.4399E-02    0.2250E-02
  (  1,  3,  6) (  1,  3,  6) (  1,  3,  6) (  1,  3,  6) (  1,  3,  6)
     0.1135E-02    0.6545E-03    0.3015E-03    0.1461E-03
  (  1,  3,  6) (  1,  3,  6) (  1,  3,  6) (  1,  3,  6)


 NO OUTPUT CONTROL FOR STRESS PERIOD    3   TIME STEP    7
 
 SOLVING FOR HEAD 
     9 ITERATIONS FOR TIME STEP   8 IN STRESS PERIOD    3

 MAXIMUM HEAD CHANGE FOR EACH ITERATION:

    HEAD CHANGE   HEAD CHANGE   HEAD CHANGE   HEAD CHANGE   HEAD CHANGE
  LAYER,ROW,COL LAYER,ROW,COL LAYER,ROW,COL LAYER,ROW,COL LAYER,ROW,COL
 ----------------------------------------------------------------------
     0.3284E-01    0.1681E-01    0.8525E-02    0.4334E-02    0.2273E-02
  (  1,  3,  6) (  1,  3,  6) (  1,  3,  6) (  1,  3,  6) (  1,  3,  6)
     0.1111E-02    0.5978E-03    0.3066E-03    0.1553E-03
  (  1,  3,  6) (  1,  3,  6) (  1,  3,  6) (  1,  3,  6)


 NO OUTPUT CONTROL FOR STRESS PERIOD    3   TIME STEP    8
 
 SOLVING FOR HEAD 
    10 ITERATIONS FOR TIME STEP   9 IN STRESS PERIOD    3

 MAXIMUM HEAD CHANGE FOR EACH ITERATION:

    HEAD CHANGE   HEAD CHANGE   HEAD CHANGE   HEAD CHANGE   HEAD CHANGE
  LAYER,ROW,COL LAYER,ROW,COL LAYER,ROW,COL LAYER,ROW,COL LAYER,ROW,COL
 ----------------------------------------------------------------------
     0.5679E-01    0.2865E-01    0.1459E-01    0.7376E-02    0.3755E-02
  (  1,  3,  5) (  1,  3,  5) (  1,  3,  5) (  1,  3,  5) (  1,  3,  5)
     0.1920E-02    0.9667E-03    0.4601E-03    0.2507E-03    0.1562E-03
  (  1,  3,  5) (  1,  3,  5) (  1,  3,  5) (  1,  3,  5) (  1,  3,  5)


 NO OUTPUT CONTROL FOR STRESS PERIOD    3   TIME STEP    9
 
 SOLVING FOR HEAD 
    10 ITERATIONS FOR TIME STEP  10 IN STRESS PERIOD    3

 MAXIMUM HEAD CHANGE FOR EACH ITERATION:

    HEAD CHANGE   HEAD CHANGE   HEAD CHANGE   HEAD CHANGE   HEAD CHANGE
  LAYER,ROW,COL LAYER,ROW,COL LAYER,ROW,COL LAYER,ROW,COL LAYER,ROW,COL
 ----------------------------------------------------------------------
     0.5856E-01    0.2973E-01    0.1509E-01    0.7634E-02    0.3917E-02
  (  1,  3,  5) (  1,  3,  5) (  1,  3,  5) (  1,  3,  5) (  1,  3,  5)
     0.2065E-02    0.1087E-02    0.5536E-03    0.3349E-03    0.1785E-03
  (  1,  3,  6) (  1,  3,  6) (  1,  3,  6) (  1,  3,  6) (  1,  3,  6)


 OUTPUT CONTROL FOR STRESS PERIOD    3   TIME STEP   10
    PRINT BUDGET
    SAVE BUDGET

            WELLS   PERIOD    3   STEP  10
 WELL      1   LAYER   1   ROW     6   COL     4   RATE    -1.00000    
 WELL      2   LAYER   1   ROW     6   COL     5   RATE    -1.00000    
 WELL      3   LAYER   1   ROW     7   COL     4   RATE    -1.00000    
 WELL      4   LAYER   1   ROW     7   COL     5   RATE    -1.00000    
 WELL      5   LAYER   1   ROW     8   COL     4   RATE    -1.00000    
 WELL      6   LAYER   1   ROW     8   COL     5   RATE    -1.00000    
 WELL      7   LAYER   1   ROW     9   COL     4   RATE    -1.00000    
 WELL      8   LAYER   1   ROW     9   COL     5   RATE    -1.00000    
 WELL      9   LAYER   1   ROW    10   COL     4   RATE    -1.00000    
 WELL     10   LAYER   1   ROW    10   COL     5   RATE    -1.00000    

  HEAD DEP BOUNDS   PERIOD    3   STEP  10
 BOUNDARY      1   LAYER   1   ROW    13   COL     1   RATE   -0.262849    
 BOUNDARY      2   LAYER   1   ROW    14   COL     9   RATE    0.208354    



 STREAM LISTING     PERIOD      3   STEP       10

 LAYER ROW COL. STREAM  RCH.  FLOW INTO     FLOW TO   FLOW OUT OF   OVRLND.     DIRECT     STREAM       STREAM     STREAM     STREAM   STREAMBED  STREAMBED
                SEG.NO.  NO.  STRM. RCH.    AQUIFER    STRM. RCH.    RUNOFF     PRECIP       ET          HEAD       DEPTH      WIDTH   CONDCTNC.   GRADIENT

   1    1    1     1     1    2.5000E+01  1.0148E+00   2.3985E+01  0.000E+00  0.000E+00  0.000E+00  1.09422E+03  1.173E+00  1.296E+01  5.832E-01  5.799E-01
   1    2    2     1     2    2.3985E+01  3.0414E+00   2.0944E+01  0.000E+00  0.000E+00  0.000E+00  1.08920E+03  1.141E+00  1.254E+01  8.779E-01  1.155E+00
   1    3    3     1     3    2.0944E+01  2.9084E+00   1.8035E+01  0.000E+00  0.000E+00  0.000E+00  1.08351E+03  1.092E+00  1.185E+01  7.108E-01  1.364E+00
   1    3    4     1     4    1.8035E+01  2.4707E+00   1.5565E+01  0.000E+00  0.000E+00  0.000E+00  1.07845E+03  1.046E+00  1.100E+01  6.107E-01  1.349E+00
   1    4    5     2     1    5.5647E+00  2.6645E+00   2.9002E+00  0.000E+00  0.000E+00  0.000E+00  1.07235E+03  4.160E-01  1.200E+01  7.800E-01  1.139E+00
   1    5    6     2     2    2.9002E+00  1.9555E+00   9.4478E-01  0.000E+00  0.000E+00  0.000E+00  1.06677E+03  2.591E-01  1.200E+01  6.000E-01  1.086E+00
   1    6    6     2     3    9.4478E-01  9.4478E-01   0.0000E+00  0.000E+00  0.000E+00  0.000E+00  1.06181E+03  1.903E-02  1.200E+01  6.000E-01  1.006E+00
   1    7    6     2     4    0.0000E+00  0.0000E+00   0.0000E+00  0.000E+00  0.000E+00  0.000E+00  1.05708E+03  0.000E+00  1.200E+01  6.000E-01  1.000E+00
   1    8    6     2     5    0.0000E+00  0.0000E+00   0.0000E+00  0.000E+00  0.000E+00  0.000E+00  1.05236E+03  0.000E+00  1.200E+01  6.000E-01  1.000E+00
   1    3    5     3     1    1.0000E+01  2.8252E+00   7.1748E+00  0.000E+00  0.000E+00  0.000E+00  1.07555E+03  1.909E+00  9.636E+00  7.227E-01  1.955E+00
   1    3    6     3     2    7.1748E+00  1.8072E+00   5.3676E+00  0.000E+00  0.000E+00  0.000E+00  1.07264E+03  1.727E+00  8.909E+00  6.682E-01  1.352E+00
   1    3    7     3     3    5.3676E+00  9.2966E-01   4.4380E+00  0.000E+00  0.000E+00  0.000E+00  1.06987E+03  1.555E+00  8.218E+00  5.547E-01  8.379E-01
   1    4    8     3     4    4.4380E+00  1.5471E+00   2.8909E+00  0.000E+00  0.000E+00  0.000E+00  1.06682E+03  1.364E+00  7.455E+00  6.709E-01  1.153E+00
   1    5    8     3     5    2.8909E+00  1.5790E+00   1.3119E+00  0.000E+00  0.000E+00  0.000E+00  1.06362E+03  1.164E+00  6.655E+00  4.991E-01  1.582E+00
   1    6    8     3     6    1.3119E+00  5.5980E-01   7.5211E-01  0.000E+00  0.000E+00  0.000E+00  1.06158E+03  1.036E+00  6.145E+00  1.844E-01  1.518E+00
   1    5   10     4     1    1.0000E+01  9.0525E-01   9.0947E+00  0.000E+00  0.000E+00  0.000E+00  1.07835E+03  6.210E-01  1.000E+01  2.500E-01  1.207E+00
   1    5    9     4     2    9.0947E+00  1.7835E+00   7.3113E+00  0.000E+00  0.000E+00  0.000E+00  1.07148E+03  5.670E-01  1.000E+01  5.000E-01  1.189E+00
   1    6    8     4     3    7.3113E+00  1.2257E+00   6.0855E+00  0.000E+00  0.000E+00  0.000E+00  1.06368E+03  5.021E-01  1.000E+01  3.500E-01  1.167E+00
   1    6    8     5     1    6.8377E+00  1.0398E+00   5.7978E+00  0.000E+00  0.000E+00  0.000E+00  1.05857E+03  5.719E-01  1.148E+01  4.594E-01  7.545E-01
   1    7    7     5     2    5.7978E+00  1.7431E+00   4.0547E+00  0.000E+00  0.000E+00  0.000E+00  1.05402E+03  5.242E-01  9.892E+00  4.946E-01  1.175E+00
   1    8    7     5     3    4.0547E+00  9.8817E-01   3.0665E+00  0.000E+00  0.000E+00  0.000E+00  1.04972E+03  4.679E-01  8.141E+00  2.849E-01  1.156E+00
   1    8    6     5     4    3.0665E+00  5.9976E-01   2.4668E+00  0.000E+00  0.000E+00  0.000E+00  1.04668E+03  4.284E-01  6.998E+00  1.749E-01  1.143E+00
   1    9    6     6     1    2.4668E+00  1.9354E+00   5.3139E-01  0.000E+00  0.000E+00  0.000E+00  1.04295E+03  2.257E-01  1.200E+01  6.000E-01  1.075E+00
   1   10    7     6     2    5.3139E-01  5.3139E-01   0.0000E+00  0.000E+00  0.000E+00  0.000E+00  1.03821E+03  2.725E-02  1.200E+01  6.000E-01  1.009E+00
   1   11    7     6     3    0.0000E+00  0.0000E+00   0.0000E+00  0.000E+00  0.000E+00  0.000E+00  1.03364E+03  0.000E+00  1.200E+01  6.000E-01  1.000E+00
   1   12    7     6     4    0.0000E+00  0.0000E+00   0.0000E+00  0.000E+00  0.000E+00  0.000E+00  1.02909E+03  0.000E+00  1.200E+01  6.000E-01  3.585E-01
   1   13    7     6     5    0.0000E+00 -7.7139E-01   7.7139E-01  0.000E+00  0.000E+00  0.000E+00  1.02601E+03  9.993E-02  1.200E+01  2.400E-01 -1.071E+00
   1   14    9     7     1    1.5000E+02  1.9558E+00   1.4804E+02  0.000E+00  0.000E+00  0.000E+00  1.03987E+03  2.286E+00  5.529E+01  5.592E+00  1.166E-01
   1   13    8     7     2    1.4804E+02  2.9703E+00   1.4507E+02  0.000E+00  0.000E+00  0.000E+00  1.03477E+03  2.273E+00  5.523E+01  6.144E+00  1.611E-01
   1   13    7     7     3    1.4507E+02  2.5347E+00   1.4254E+02  0.000E+00  0.000E+00  0.000E+00  1.02968E+03  2.258E+00  5.516E+01  5.578E+00  1.515E-01
   1   13    6     8     1    1.4331E+02  8.6045E-01   1.4245E+02  0.000E+00  0.000E+00  0.000E+00  1.02464E+03  2.766E+00  4.011E+01  4.087E+00  7.018E-02
   1   13    5     8     2    1.4245E+02 -2.1004E+00   1.4455E+02  0.000E+00  0.000E+00  0.000E+00  1.01840E+03  2.770E+00  4.017E+01  4.094E+00 -1.710E-01
   1   13    4     8     3    1.4455E+02 -3.8738E+00   1.4842E+02  0.000E+00  0.000E+00  0.000E+00  1.01217E+03  2.792E+00  4.048E+01  4.125E+00 -3.130E-01
   1   13    3     8     4    1.4842E+02 -4.1908E+00   1.5262E+02  0.000E+00  0.000E+00  0.000E+00  1.00595E+03  2.820E+00  4.090E+01  4.168E+00 -3.352E-01
   1   13    2     8     5    1.5262E+02 -2.0930E+00   1.5471E+02  0.000E+00  0.000E+00  0.000E+00  9.99717E+02  2.842E+00  4.122E+01  4.200E+00 -1.661E-01
   1   13    1     8     6    1.5471E+02 -4.8215E-01   1.5519E+02  0.000E+00  0.000E+00  0.000E+00  9.94726E+02  2.851E+00  4.134E+01  2.528E+00 -6.358E-02



 UBDSV3 SAVING "           GW ET" ON UNIT  61 AT TIME STEP 10, STRESS PERIOD   3
 UBDSV3 SAVING "    UZF RECHARGE" ON UNIT  61 AT TIME STEP 10, STRESS PERIOD   3
 UBDSV3 SAVING " SURFACE LEAKAGE" ON UNIT  61 AT TIME STEP 10, STRESS PERIOD   3
 UBDSV3 SAVING "       HORT+DUNN" ON UNIT  61 AT TIME STEP 10, STRESS PERIOD   3
 UBDSV3 SAVING "  STORAGE CHANGE" ON UNIT  61 AT TIME STEP 10, STRESS PERIOD   3


UNSATURATED ZONE PACKAGE VOLUMETRIC BUDGET FOR  TIME STEP    10 STRESS PERIOD    3
  ------------------------------------------------------------------------------



     CUMULATIVE VOLUMES      L**3       RATES FOR THIS TIME STEP      L**3/T
     ------------------                 ------------------------

           IN:                                      IN:
           ---                                      ---
        INFILTRATION =   312170964.2656          INFILTRATION =          84.7500

          OUT:                                     OUT:
          ----                                     ----
              UZF ET =   490698713.4661                UZF ET =         124.1292
        UZF RECHARGE =    64376555.3749          UZF RECHARGE =          15.4882

            IN - OUT =  -242904304.5753              IN - OUT =         -54.8674

          STORAGE:                                 STORAGE:
          --------                                 --------
      STORAGE CHANGE =  -242838620.6564        STORAGE CHANGE =         -54.8645

 PERCENT DISCREPANCY IS DIFFERENCE BETWEEN IN-OUT MINUS CHANGE IN STORAGE
 DIVIDED BY THE AVERAGE OF IN AND OUT TIMES 100

 PERCENT DISCREPANCY =          -0.00     PERCENT DISCREPANCY =          -0.00






1
  VOLUMETRIC BUDGET FOR ENTIRE MODEL AT END OF TIME STEP   10, STRESS PERIOD   3
  ------------------------------------------------------------------------------

     CUMULATIVE VOLUMES      L**3       RATES FOR THIS TIME STEP      L**3/T
     ------------------                 ------------------------

           IN:                                      IN:
           ---                                      ---
             STORAGE =       71055.6641               STORAGE =       2.3483E-02
       CONSTANT HEAD =           0.0000         CONSTANT HEAD =           0.0000
               WELLS =           0.0000                 WELLS =           0.0000
     HEAD DEP BOUNDS =     1375124.5000       HEAD DEP BOUNDS =           0.2084
      STREAM LEAKAGE =   287833984.0000        STREAM LEAKAGE =          43.3213
        UZF RECHARGE =    64376568.0000          UZF RECHARGE =          15.4882
               GW ET =           0.0000                 GW ET =           0.0000
     SURFACE LEAKAGE =           0.0000       SURFACE LEAKAGE =           0.0000

            TOTAL IN =   353656736.0000              TOTAL IN =          59.0413

          OUT:                                     OUT:
          ----                                     ----
             STORAGE =    42859880.0000               STORAGE =          21.2992
       CONSTANT HEAD =           0.0000         CONSTANT HEAD =           0.0000
               WELLS =   118302320.0000                 WELLS =          10.0000
     HEAD DEP BOUNDS =     1721585.3750       HEAD DEP BOUNDS =           0.2628
      STREAM LEAKAGE =    82738592.0000        STREAM LEAKAGE =          13.5115
        UZF RECHARGE =           0.0000          UZF RECHARGE =           0.0000
               GW ET =   107967848.0000                 GW ET =          13.9674
     SURFACE LEAKAGE =           0.0000       SURFACE LEAKAGE =           0.0000

           TOTAL OUT =   353590240.0000             TOTAL OUT =          59.0410

            IN - OUT =       66496.0000              IN - OUT =       3.4714E-04

 PERCENT DISCREPANCY =           0.02     PERCENT DISCREPANCY =           0.00






         TIME SUMMARY AT END OF TIME STEP   10 IN STRESS PERIOD    3
                    SECONDS     MINUTES      HOURS       DAYS        YEARS
                    -----------------------------------------------------------
   TIME STEP LENGTH 1.95033E+05  3250.6      54.176      2.2573     6.18023E-03
 STRESS PERIOD TIME 1.31823E+06  21971.      366.18      15.257     4.17723E-02
         TOTAL TIME 6.57423E+06 1.09571E+05  1826.2      76.091     0.20832    
1
 
 SOLVING FOR HEAD 
    10 ITERATIONS FOR TIME STEP  11 IN STRESS PERIOD    3

 MAXIMUM HEAD CHANGE FOR EACH ITERATION:

    HEAD CHANGE   HEAD CHANGE   HEAD CHANGE   HEAD CHANGE   HEAD CHANGE
  LAYER,ROW,COL LAYER,ROW,COL LAYER,ROW,COL LAYER,ROW,COL LAYER,ROW,COL
 ----------------------------------------------------------------------
     0.6266E-01    0.3170E-01    0.1604E-01    0.8140E-02    0.4315E-02
  (  1,  3,  5) (  1,  3,  5) (  1,  3,  5) (  1,  3,  5) (  1,  3,  6)
     0.2274E-02    0.1191E-02    0.6667E-03    0.3174E-03    0.1857E-03
  (  1,  3,  6) (  1,  3,  6) (  1,  3,  6) (  1,  3,  6) (  1,  3,  6)


 NO OUTPUT CONTROL FOR STRESS PERIOD    3   TIME STEP   11
 
 SOLVING FOR HEAD 
    12 ITERATIONS FOR TIME STEP  12 IN STRESS PERIOD    3

 MAXIMUM HEAD CHANGE FOR EACH ITERATION:

    HEAD CHANGE   HEAD CHANGE   HEAD CHANGE   HEAD CHANGE   HEAD CHANGE
  LAYER,ROW,COL LAYER,ROW,COL LAYER,ROW,COL LAYER,ROW,COL LAYER,ROW,COL
 ----------------------------------------------------------------------
     0.8982E-01    0.4804E-01    0.2575E-01    0.1379E-01    0.7348E-02
  (  1,  3,  5) (  1,  3,  5) (  1,  3,  5) (  1,  3,  5) (  1,  3,  5)
     0.3980E-02    0.2117E-02    0.1119E-02    0.5733E-03    0.3239E-03
  (  1,  3,  5) (  1,  3,  5) (  1,  3,  5) (  1,  3,  5) (  1,  3,  5)
     0.2040E-03    0.1098E-03
  (  1,  3,  5) (  1,  3,  5)


 NO OUTPUT CONTROL FOR STRESS PERIOD    3   TIME STEP   12
 
 SOLVING FOR HEAD 
    11 ITERATIONS FOR TIME STEP  13 IN STRESS PERIOD    3

 MAXIMUM HEAD CHANGE FOR EACH ITERATION:

    HEAD CHANGE   HEAD CHANGE   HEAD CHANGE   HEAD CHANGE   HEAD CHANGE
  LAYER,ROW,COL LAYER,ROW,COL LAYER,ROW,COL LAYER,ROW,COL LAYER,ROW,COL
 ----------------------------------------------------------------------
     0.8890E-01    0.4739E-01    0.2530E-01    0.1352E-01    0.7191E-02
  (  1,  3,  5) (  1,  3,  5) (  1,  3,  5) (  1,  3,  5) (  1,  3,  5)
     0.3803E-02    0.2052E-02    0.1096E-02    0.5986E-03    0.2721E-03
  (  1,  3,  5) (  1,  3,  5) (  1,  3,  5) (  1,  3,  5) (  1,  3,  5)
     0.1310E-03
  (  1,  3,  5)


 NO OUTPUT CONTROL FOR STRESS PERIOD    3   TIME STEP   13
 
 SOLVING FOR HEAD 
    12 ITERATIONS FOR TIME STEP  14 IN STRESS PERIOD    3

 MAXIMUM HEAD CHANGE FOR EACH ITERATION:

    HEAD CHANGE   HEAD CHANGE   HEAD CHANGE   HEAD CHANGE   HEAD CHANGE
  LAYER,ROW,COL LAYER,ROW,COL LAYER,ROW,COL LAYER,ROW,COL LAYER,ROW,COL
 ----------------------------------------------------------------------
     0.8797E-01    0.4672E-01    0.2489E-01    0.1323E-01    0.6968E-02
  (  1,  3,  5) (  1,  3,  5) (  1,  3,  5) (  1,  3,  5) (  1,  3,  5)
     0.3731E-02    0.1991E-02    0.1064E-02    0.5450E-03    0.2756E-03
  (  1,  3,  5) (  1,  3,  5) (  1,  3,  5) (  1,  3,  5) (  1,  3,  5)
     0.2216E-03    0.7497E-04
  (  1,  3,  5) (  1, 13,  1)


 NO OUTPUT CONTROL FOR STRESS PERIOD    3   TIME STEP   14
 
 SOLVING FOR HEAD 
    11 ITERATIONS FOR TIME STEP  15 IN STRESS PERIOD    3

 MAXIMUM HEAD CHANGE FOR EACH ITERATION:

    HEAD CHANGE   HEAD CHANGE   HEAD CHANGE   HEAD CHANGE   HEAD CHANGE
  LAYER,ROW,COL LAYER,ROW,COL LAYER,ROW,COL LAYER,ROW,COL LAYER,ROW,COL
 ----------------------------------------------------------------------
     0.8773E-01    0.4653E-01    0.2465E-01    0.1312E-01    0.6979E-02
  (  1,  3,  5) (  1,  3,  5) (  1,  3,  5) (  1,  3,  5) (  1,  3,  5)
     0.3764E-02    0.2021E-02    0.1040E-02    0.5709E-03    0.2963E-03
  (  1,  3,  5) (  1,  3,  5) (  1,  3,  5) (  1,  3,  5) (  1,  3,  5)
     0.1508E-03
  (  1,  3,  5)


 OUTPUT CONTROL FOR STRESS PERIOD    3   TIME STEP   15
    PRINT BUDGET
    PRINT HEAD FOR ALL LAYERS
    SAVE HEAD FOR ALL LAYERS
    SAVE BUDGET

            WELLS   PERIOD    3   STEP  15
 WELL      1   LAYER   1   ROW     6   COL     4   RATE    -1.00000    
 WELL      2   LAYER   1   ROW     6   COL     5   RATE    -1.00000    
 WELL      3   LAYER   1   ROW     7   COL     4   RATE    -1.00000    
 WELL      4   LAYER   1   ROW     7   COL     5   RATE    -1.00000    
 WELL      5   LAYER   1   ROW     8   COL     4   RATE    -1.00000    
 WELL      6   LAYER   1   ROW     8   COL     5   RATE    -1.00000    
 WELL      7   LAYER   1   ROW     9   COL     4   RATE    -1.00000    
 WELL      8   LAYER   1   ROW     9   COL     5   RATE    -1.00000    
 WELL      9   LAYER   1   ROW    10   COL     4   RATE    -1.00000    
 WELL     10   LAYER   1   ROW    10   COL     5   RATE    -1.00000    

  HEAD DEP BOUNDS   PERIOD    3   STEP  15
 BOUNDARY      1   LAYER   1   ROW    13   COL     1   RATE   -0.262974    
 BOUNDARY      2   LAYER   1   ROW    14   COL     9   RATE    0.208329    



 STREAM LISTING     PERIOD      3   STEP       15

 LAYER ROW COL. STREAM  RCH.  FLOW INTO     FLOW TO   FLOW OUT OF   OVRLND.     DIRECT     STREAM       STREAM     STREAM     STREAM   STREAMBED  STREAMBED
                SEG.NO.  NO.  STRM. RCH.    AQUIFER    STRM. RCH.    RUNOFF     PRECIP       ET          HEAD       DEPTH      WIDTH   CONDCTNC.   GRADIENT

   1    1    1     1     1    2.5000E+01  1.0035E+00   2.3997E+01  0.000E+00  0.000E+00  0.000E+00  1.09422E+03  1.173E+00  1.296E+01  5.833E-01  5.735E-01
   1    2    2     1     2    2.3997E+01  3.0261E+00   2.0970E+01  0.000E+00  0.000E+00  0.000E+00  1.08920E+03  1.141E+00  1.255E+01  8.782E-01  1.149E+00
   1    3    3     1     3    2.0970E+01  2.9106E+00   1.8060E+01  0.000E+00  0.000E+00  0.000E+00  1.08351E+03  1.092E+00  1.185E+01  7.113E-01  1.364E+00
   1    3    4     1     4    1.8060E+01  2.4726E+00   1.5587E+01  0.000E+00  0.000E+00  0.000E+00  1.07845E+03  1.046E+00  1.101E+01  6.111E-01  1.349E+00
   1    4    5     2     1    5.5872E+00  2.6655E+00   2.9217E+00  0.000E+00  0.000E+00  0.000E+00  1.07235E+03  4.173E-01  1.200E+01  7.800E-01  1.139E+00
   1    5    6     2     2    2.9217E+00  1.9565E+00   9.6520E-01  0.000E+00  0.000E+00  0.000E+00  1.06677E+03  2.608E-01  1.200E+01  6.000E-01  1.087E+00
   1    6    6     2     3    9.6520E-01  9.6520E-01   0.0000E+00  0.000E+00  0.000E+00  0.000E+00  1.06181E+03  1.928E-02  1.200E+01  6.000E-01  1.006E+00
   1    7    6     2     4    0.0000E+00  0.0000E+00   0.0000E+00  0.000E+00  0.000E+00  0.000E+00  1.05708E+03  0.000E+00  1.200E+01  6.000E-01  1.000E+00
   1    8    6     2     5    0.0000E+00  0.0000E+00   0.0000E+00  0.000E+00  0.000E+00  0.000E+00  1.05236E+03  0.000E+00  1.200E+01  6.000E-01  1.000E+00
   1    3    5     3     1    1.0000E+01  2.8252E+00   7.1748E+00  0.000E+00  0.000E+00  0.000E+00  1.07555E+03  1.909E+00  9.636E+00  7.227E-01  1.955E+00
   1    3    6     3     2    7.1748E+00  1.4656E+00   5.7092E+00  0.000E+00  0.000E+00  0.000E+00  1.07264E+03  1.727E+00  8.909E+00  6.682E-01  1.097E+00
   1    3    7     3     3    5.7092E+00  7.0829E-01   5.0009E+00  0.000E+00  0.000E+00  0.000E+00  1.06987E+03  1.555E+00  8.218E+00  5.547E-01  6.384E-01
   1    4    8     3     4    5.0009E+00  1.5731E+00   3.4278E+00  0.000E+00  0.000E+00  0.000E+00  1.06682E+03  1.364E+00  7.455E+00  6.709E-01  1.172E+00
   1    5    8     3     5    3.4278E+00  1.5790E+00   1.8489E+00  0.000E+00  0.000E+00  0.000E+00  1.06362E+03  1.164E+00  6.655E+00  4.991E-01  1.582E+00
   1    6    8     3     6    1.8489E+00  5.5980E-01   1.2891E+00  0.000E+00  0.000E+00  0.000E+00  1.06158E+03  1.036E+00  6.145E+00  1.844E-01  1.518E+00
   1    5   10     4     1    1.0000E+01  9.0525E-01   9.0947E+00  0.000E+00  0.000E+00  0.000E+00  1.07835E+03  6.210E-01  1.000E+01  2.500E-01  1.207E+00
   1    5    9     4     2    9.0947E+00  1.7835E+00   7.3113E+00  0.000E+00  0.000E+00  0.000E+00  1.07148E+03  5.670E-01  1.000E+01  5.000E-01  1.189E+00
   1    6    8     4     3    7.3113E+00  1.2257E+00   6.0855E+00  0.000E+00  0.000E+00  0.000E+00  1.06368E+03  5.021E-01  1.000E+01  3.500E-01  1.167E+00
   1    6    8     5     1    7.3746E+00  1.0755E+00   6.2991E+00  0.000E+00  0.000E+00  0.000E+00  1.05859E+03  5.879E-01  1.204E+01  4.817E-01  7.443E-01
   1    7    7     5     2    6.2991E+00  1.8455E+00   4.4536E+00  0.000E+00  0.000E+00  0.000E+00  1.05404E+03  5.405E-01  1.042E+01  5.212E-01  1.180E+00
   1    8    7     5     3    4.4536E+00  1.0529E+00   3.4007E+00  0.000E+00  0.000E+00  0.000E+00  1.04973E+03  4.842E-01  8.634E+00  3.022E-01  1.161E+00
   1    8    6     5     4    3.4007E+00  6.4262E-01   2.7581E+00  0.000E+00  0.000E+00  0.000E+00  1.04669E+03  4.447E-01  7.462E+00  1.866E-01  1.148E+00
   1    9    6     6     1    2.7581E+00  1.9502E+00   8.0782E-01  0.000E+00  0.000E+00  0.000E+00  1.04298E+03  2.504E-01  1.200E+01  6.000E-01  1.083E+00
   1   10    7     6     2    8.0782E-01  8.0782E-01   0.0000E+00  0.000E+00  0.000E+00  0.000E+00  1.03822E+03  3.504E-02  1.200E+01  6.000E-01  1.012E+00
   1   11    7     6     3    0.0000E+00  0.0000E+00   0.0000E+00  0.000E+00  0.000E+00  0.000E+00  1.03364E+03  0.000E+00  1.200E+01  6.000E-01  1.000E+00
   1   12    7     6     4    0.0000E+00  0.0000E+00   0.0000E+00  0.000E+00  0.000E+00  0.000E+00  1.02909E+03  0.000E+00  1.200E+01  6.000E-01  3.460E-01
   1   13    7     6     5    0.0000E+00 -7.7213E-01   7.7213E-01  0.000E+00  0.000E+00  0.000E+00  1.02601E+03  9.999E-02  1.200E+01  2.400E-01 -1.072E+00
   1   14    9     7     1    1.5000E+02  1.9522E+00   1.4805E+02  0.000E+00  0.000E+00  0.000E+00  1.03987E+03  2.286E+00  5.529E+01  5.592E+00  1.164E-01
   1   13    8     7     2    1.4805E+02  2.9629E+00   1.4508E+02  0.000E+00  0.000E+00  0.000E+00  1.03477E+03  2.273E+00  5.523E+01  6.144E+00  1.607E-01
   1   13    7     7     3    1.4508E+02  2.5177E+00   1.4257E+02  0.000E+00  0.000E+00  0.000E+00  1.02968E+03  2.258E+00  5.516E+01  5.579E+00  1.504E-01
   1   13    6     8     1    1.4334E+02  8.3577E-01   1.4250E+02  0.000E+00  0.000E+00  0.000E+00  1.02464E+03  2.766E+00  4.011E+01  4.087E+00  6.816E-02
   1   13    5     8     2    1.4250E+02 -2.1536E+00   1.4466E+02  0.000E+00  0.000E+00  0.000E+00  1.01840E+03  2.771E+00  4.018E+01  4.094E+00 -1.753E-01
   1   13    4     8     3    1.4466E+02 -3.9215E+00   1.4858E+02  0.000E+00  0.000E+00  0.000E+00  1.01217E+03  2.793E+00  4.050E+01  4.127E+00 -3.168E-01
   1   13    3     8     4    1.4858E+02 -4.2338E+00   1.5281E+02  0.000E+00  0.000E+00  0.000E+00  1.00595E+03  2.822E+00  4.092E+01  4.169E+00 -3.385E-01
   1   13    2     8     5    1.5281E+02 -2.1033E+00   1.5492E+02  0.000E+00  0.000E+00  0.000E+00  9.99719E+02  2.844E+00  4.124E+01  4.202E+00 -1.669E-01
   1   13    1     8     6    1.5492E+02 -4.8709E-01   1.5540E+02  0.000E+00  0.000E+00  0.000E+00  9.94728E+02  2.853E+00  4.137E+01  2.529E+00 -6.420E-02



 UBDSV3 SAVING "           GW ET" ON UNIT  61 AT TIME STEP 15, STRESS PERIOD   3
 UBDSV3 SAVING "    UZF RECHARGE" ON UNIT  61 AT TIME STEP 15, STRESS PERIOD   3
 UBDSV3 SAVING " SURFACE LEAKAGE" ON UNIT  61 AT TIME STEP 15, STRESS PERIOD   3
 UBDSV3 SAVING "       HORT+DUNN" ON UNIT  61 AT TIME STEP 15, STRESS PERIOD   3
 UBDSV3 SAVING "  STORAGE CHANGE" ON UNIT  61 AT TIME STEP 15, STRESS PERIOD   3


UNSATURATED ZONE PACKAGE VOLUMETRIC BUDGET FOR  TIME STEP    15 STRESS PERIOD    3
  ------------------------------------------------------------------------------



     CUMULATIVE VOLUMES      L**3       RATES FOR THIS TIME STEP      L**3/T
     ------------------                 ------------------------

           IN:                                      IN:
           ---                                      ---
        INFILTRATION =   423173665.3594          INFILTRATION =          84.7500

          OUT:                                     OUT:
          ----                                     ----
              UZF ET =   640648445.5017                UZF ET =         108.5666
        UZF RECHARGE =    85579997.6877          UZF RECHARGE =          15.9882

            IN - OUT =  -303054777.8301              IN - OUT =         -39.8048

          STORAGE:                                 STORAGE:
          --------                                 --------
      STORAGE CHANGE =  -302958299.8707        STORAGE CHANGE =         -39.7700

 PERCENT DISCREPANCY IS DIFFERENCE BETWEEN IN-OUT MINUS CHANGE IN STORAGE
 DIVIDED BY THE AVERAGE OF IN AND OUT TIMES 100

 PERCENT DISCREPANCY =          -0.00     PERCENT DISCREPANCY =          -0.03






1
              HEAD IN LAYER   1 AT END OF TIME STEP  15 IN STRESS PERIOD    3
  ---------------------------------------------------------------------------

           1       2       3       4       5       6       7       8       9      10
 ...................................................................................
   1  1092.50 1088.67 6999.00 6999.00 6999.00 6999.00 6999.00 6999.00 6999.00 6999.00
   2  1089.21 1085.75 1079.05 6999.00 6999.00 1071.67 1070.91 1070.38 6999.00 6999.00
   3  6999.00 1077.35 1074.20 1069.91 1071.34 1070.44 1068.60 1067.88 6999.00 6999.00
   4  1067.82 1068.31 1066.44 1062.76 1061.62 1060.40 1061.26 1064.47 1063.74 6999.00
   5  1063.68 1061.23 1058.43 1056.24 1056.00 1056.74 1056.83 1059.23 1062.85 1065.29
   6  1058.99 1055.27 1051.90 1049.84 1050.22 1052.05 1053.63 1056.36 1059.24 1063.62
   7  1055.33 1049.59 1045.97 1044.05 1044.79 1046.97 1049.75 1052.41 1054.06 6999.00
   8  6999.00 1042.24 1039.89 1038.43 1039.45 1041.83 1043.93 1046.91 1049.11 6999.00
   9  6999.00 1035.31 1033.92 1033.13 1034.47 1037.00 1038.14 1040.44 1043.70 6999.00
  10  6999.00 1028.30 1028.06 1028.42 1030.02 1032.19 1033.67 1035.88 1039.94 1044.37
  11  6999.00 1019.58 1020.98 1024.15 1026.25 1028.49 1030.12 1032.65 1036.23 6999.00
  12  1001.16 1008.80 1013.99 1018.71 1022.37 1025.64 1028.05 1031.09 1034.81 6999.00
  13   994.92 1000.22 1006.96 1013.12 1018.92 1024.44 1029.23 1034.29 1036.45 6999.00
  14  6999.00 1005.81 1011.49 1016.20 1021.24 1026.07 1030.49 1035.39 1039.52 6999.00
  15  6999.00 6999.00 1018.83 1021.82 1025.56 1028.54 6999.00 6999.00 6999.00 6999.00

 HEAD WILL BE SAVED ON UNIT   58 AT END OF TIME STEP   15, STRESS PERIOD    3
1
  VOLUMETRIC BUDGET FOR ENTIRE MODEL AT END OF TIME STEP   15, STRESS PERIOD   3
  ------------------------------------------------------------------------------

     CUMULATIVE VOLUMES      L**3       RATES FOR THIS TIME STEP      L**3/T
     ------------------                 ------------------------

           IN:                                      IN:
           ---                                      ---
             STORAGE =      323741.3750               STORAGE =           0.2001
       CONSTANT HEAD =           0.0000         CONSTANT HEAD =           0.0000
               WELLS =           0.0000                 WELLS =           0.0000
     HEAD DEP BOUNDS =     1648002.8750       HEAD DEP BOUNDS =           0.2083
      STREAM LEAKAGE =   344530496.0000        STREAM LEAKAGE =          43.2686
        UZF RECHARGE =    85580008.0000          UZF RECHARGE =          15.9882
               GW ET =           0.0000                 GW ET =           0.0000
     SURFACE LEAKAGE =           0.0000       SURFACE LEAKAGE =           0.0000

            TOTAL IN =   432082240.0000              TOTAL IN =          59.6653

          OUT:                                     OUT:
          ----                                     ----
             STORAGE =    71041072.0000               STORAGE =          21.0950
       CONSTANT HEAD =           0.0000         CONSTANT HEAD =           0.0000
               WELLS =   131399984.0000                 WELLS =          10.0000
     HEAD DEP BOUNDS =     2065964.7500       HEAD DEP BOUNDS =           0.2630
      STREAM LEAKAGE =   100576952.0000        STREAM LEAKAGE =          13.6714
        UZF RECHARGE =           0.0000          UZF RECHARGE =           0.0000
               GW ET =   126938904.0000                 GW ET =          14.6604
     SURFACE LEAKAGE =           0.0000       SURFACE LEAKAGE =           0.0000

           TOTAL OUT =   432022880.0000             TOTAL OUT =          59.6898

            IN - OUT =       59360.0000              IN - OUT =      -2.4448E-02

 PERCENT DISCREPANCY =           0.01     PERCENT DISCREPANCY =          -0.04






         TIME SUMMARY AT END OF TIME STEP   15 IN STRESS PERIOD    3
                    SECONDS     MINUTES      HOURS       DAYS        YEARS
                    -----------------------------------------------------------
   TIME STEP LENGTH 3.14103E+05  5235.0      87.251      3.6354     9.95332E-03
 STRESS PERIOD TIME 2.62800E+06  43800.      730.00      30.417     8.32763E-02
         TOTAL TIME 7.88400E+06 1.31400E+05  2190.0      91.250     0.24983    
1
1
                            STRESS PERIOD NO.    4, LENGTH =   2628000.    
                            -----------------------------------------------

                              NUMBER OF TIME STEPS =    15

                               MULTIPLIER FOR DELT =     1.100

                            INITIAL TIME STEP SIZE =   82713.07    

 WELL NO.  LAYER   ROW   COL   STRESS RATE         
 --------------------------------------------------
      1      1      6      4      -1.000    
      2      1      6      5      -1.000    
      3      1      7      4      -1.000    
      4      1      7      5      -1.000    
      5      1      8      4      -1.000    
      6      1      8      5      -1.000    
      7      1      9      4      -1.000    
      8      1      9      5      -1.000    
      9      1     10      4      -1.000    
     10      1     10      5      -1.000    

     10 WELLS

 REUSING NON-PARAMETER GHB CELLS FROM LAST STRESS PERIOD

      2 GHB CELLS

 REUSING STREAM SEGMENT DATA FROM LAST STRESS PERIOD



            AREAL INFILTRATION RATE
 READING ON UNIT   19 WITH FORMAT: (10F4.0)            

            1           2           3           4           5           6           7           8           9          10
 ........................................................................................................................
   1   2.0000E-08  4.0000E-08   0.000       0.000       0.000       0.000       0.000       0.000       0.000       0.000    
   2   4.0000E-08  2.0000E-08  4.0000E-08   0.000       0.000      1.6000E-07  1.6000E-07  1.0000E-07   0.000       0.000    
   3    0.000      1.0000E-07  2.0000E-08  2.0000E-08  1.6000E-07  1.6000E-07  1.0000E-07  1.0000E-07   0.000       0.000    
   4   1.6000E-07  1.0000E-07  2.0000E-08  2.0000E-08  2.0000E-08  2.0000E-08  2.0000E-08  2.0000E-08  4.0000E-08   0.000    
   5   1.6000E-07  1.0000E-07  2.0000E-08  2.0000E-08  2.0000E-08  2.0000E-08  2.0000E-08  2.0000E-08  2.0000E-08  2.0000E-08
   6   1.6000E-07  1.0000E-07  1.0000E-07  4.0000E-08  4.0000E-08  2.0000E-08  2.0000E-08  2.0000E-08  2.0000E-08  1.0000E-07
   7   1.6000E-07  1.0000E-07  1.0000E-07  4.0000E-08  4.0000E-08  2.0000E-08  2.0000E-08  4.0000E-08  4.0000E-08   0.000    
   8    0.000      1.0000E-07  1.0000E-07  4.0000E-08  4.0000E-08  2.0000E-08  2.0000E-08  4.0000E-08  1.0000E-07   0.000    
   9    0.000      1.0000E-07  1.0000E-07  4.0000E-08  4.0000E-08  2.0000E-08  2.0000E-08  4.0000E-08  1.0000E-07   0.000    
  10    0.000      1.0000E-07  1.0000E-07  4.0000E-08  4.0000E-08  2.0000E-08  2.0000E-08  4.0000E-08  1.0000E-07  1.6000E-07
  11    0.000      2.0000E-08  2.0000E-08  2.0000E-08  2.0000E-08  2.0000E-08  2.0000E-08  4.0000E-08  1.0000E-07   0.000    
  12   2.0000E-08  2.0000E-08  2.0000E-08  2.0000E-08  2.0000E-08  2.0000E-08  2.0000E-08  2.0000E-08  4.0000E-08   0.000    
  13   2.0000E-08  2.0000E-08  4.0000E-08  4.0000E-08  4.0000E-08  4.0000E-08  4.0000E-08  2.0000E-08  2.0000E-08   0.000    
  14    0.000      4.0000E-08  1.0000E-07  1.0000E-07  1.0000E-07  1.0000E-07  1.0000E-07  4.0000E-08  2.0000E-08   0.000    
  15    0.000       0.000      1.6000E-07  1.6000E-07  1.6000E-07  1.6000E-07   0.000       0.000       0.000       0.000    

USING ET RATE FROM PREVIOUS STRESS PERIOD. CURRENT PERIOD IS:       4

 USING ET EXTINCTION DEPTH FROM PREVIOUS STRESS PERIOD. CURRENT PERIOD IS:       4

 USING EXTINCTION WATER CONTENT FROM PREVIOUS STRESS PERIOD. CURRENT PERIOD IS:       4
 
 SOLVING FOR HEAD 

     9 ITERATIONS FOR TIME STEP   1 IN STRESS PERIOD    4

 MAXIMUM HEAD CHANGE FOR EACH ITERATION:

    HEAD CHANGE   HEAD CHANGE   HEAD CHANGE   HEAD CHANGE   HEAD CHANGE
  LAYER,ROW,COL LAYER,ROW,COL LAYER,ROW,COL LAYER,ROW,COL LAYER,ROW,COL
 ----------------------------------------------------------------------
     0.2137E-01    0.1172E-01    0.6441E-02    0.3516E-02    0.1968E-02
  (  1,  3,  5) (  1,  3,  5) (  1,  3,  5) (  1,  3,  5) (  1,  3,  5)
     0.1102E-02    0.5747E-03    0.3174E-03    0.1645E-03
  (  1,  3,  5) (  1,  3,  5) (  1,  3,  5) (  1,  3,  5)


 NO OUTPUT CONTROL FOR STRESS PERIOD    4   TIME STEP    1
 
 SOLVING FOR HEAD 
     9 ITERATIONS FOR TIME STEP   2 IN STRESS PERIOD    4

 MAXIMUM HEAD CHANGE FOR EACH ITERATION:

    HEAD CHANGE   HEAD CHANGE   HEAD CHANGE   HEAD CHANGE   HEAD CHANGE
  LAYER,ROW,COL LAYER,ROW,COL LAYER,ROW,COL LAYER,ROW,COL LAYER,ROW,COL
 ----------------------------------------------------------------------
     0.2294E-01    0.1264E-01    0.6917E-02    0.3828E-02    0.2099E-02
  (  1,  3,  5) (  1,  3,  5) (  1,  3,  5) (  1,  3,  5) (  1,  3,  5)
     0.1142E-02    0.6172E-03    0.3457E-03    0.1802E-03
  (  1,  3,  5) (  1,  3,  5) (  1,  3,  5) (  1,  3,  5)


 NO OUTPUT CONTROL FOR STRESS PERIOD    4   TIME STEP    2
 
 SOLVING FOR HEAD 
     9 ITERATIONS FOR TIME STEP   3 IN STRESS PERIOD    4

 MAXIMUM HEAD CHANGE FOR EACH ITERATION:

    HEAD CHANGE   HEAD CHANGE   HEAD CHANGE   HEAD CHANGE   HEAD CHANGE
  LAYER,ROW,COL LAYER,ROW,COL LAYER,ROW,COL LAYER,ROW,COL LAYER,ROW,COL
 ----------------------------------------------------------------------
     0.2421E-01    0.1332E-01    0.7296E-02    0.4020E-02    0.2206E-02
  (  1,  3,  5) (  1,  3,  5) (  1,  3,  5) (  1,  3,  5) (  1,  3,  5)
     0.1173E-02    0.6613E-03    0.3762E-03    0.1971E-03
  (  1,  3,  5) (  1,  3,  5) (  1,  3,  5) (  1,  3,  5)


 NO OUTPUT CONTROL FOR STRESS PERIOD    4   TIME STEP    3
 
 SOLVING FOR HEAD 
    10 ITERATIONS FOR TIME STEP   4 IN STRESS PERIOD    4

 MAXIMUM HEAD CHANGE FOR EACH ITERATION:

    HEAD CHANGE   HEAD CHANGE   HEAD CHANGE   HEAD CHANGE   HEAD CHANGE
  LAYER,ROW,COL LAYER,ROW,COL LAYER,ROW,COL LAYER,ROW,COL LAYER,ROW,COL
 ----------------------------------------------------------------------
     0.2563E-01    0.1416E-01    0.7780E-02    0.4299E-02    0.2332E-02
  (  1,  3,  5) (  1,  3,  5) (  1,  3,  5) (  1,  3,  5) (  1,  3,  5)
     0.1336E-02    0.7351E-03    0.4146E-03    0.2167E-03    0.1100E-03
  (  1,  3,  5) (  1,  3,  5) (  1,  3,  5) (  1,  3,  5) (  1,  3,  5)


 NO OUTPUT CONTROL FOR STRESS PERIOD    4   TIME STEP    4
 
 SOLVING FOR HEAD 
    10 ITERATIONS FOR TIME STEP   5 IN STRESS PERIOD    4

 MAXIMUM HEAD CHANGE FOR EACH ITERATION:

    HEAD CHANGE   HEAD CHANGE   HEAD CHANGE   HEAD CHANGE   HEAD CHANGE
  LAYER,ROW,COL LAYER,ROW,COL LAYER,ROW,COL LAYER,ROW,COL LAYER,ROW,COL
 ----------------------------------------------------------------------
     0.2732E-01    0.1500E-01    0.8281E-02    0.4519E-02    0.2517E-02
  (  1,  3,  5) (  1,  3,  5) (  1,  3,  5) (  1,  3,  5) (  1,  3,  5)
     0.1384E-02    0.7168E-03    0.4369E-03    0.2341E-03    0.1200E-03
  (  1,  3,  5) (  1,  3,  5) (  1,  3,  5) (  1,  3,  5) (  1,  3,  5)


 OUTPUT CONTROL FOR STRESS PERIOD    4   TIME STEP    5
    PRINT BUDGET
    SAVE BUDGET

            WELLS   PERIOD    4   STEP   5
 WELL      1   LAYER   1   ROW     6   COL     4   RATE    -1.00000    
 WELL      2   LAYER   1   ROW     6   COL     5   RATE    -1.00000    
 WELL      3   LAYER   1   ROW     7   COL     4   RATE    -1.00000    
 WELL      4   LAYER   1   ROW     7   COL     5   RATE    -1.00000    
 WELL      5   LAYER   1   ROW     8   COL     4   RATE    -1.00000    
 WELL      6   LAYER   1   ROW     8   COL     5   RATE    -1.00000    
 WELL      7   LAYER   1   ROW     9   COL     4   RATE    -1.00000    
 WELL      8   LAYER   1   ROW     9   COL     5   RATE    -1.00000    
 WELL      9   LAYER   1   ROW    10   COL     4   RATE    -1.00000    
 WELL     10   LAYER   1   ROW    10   COL     5   RATE    -1.00000    

  HEAD DEP BOUNDS   PERIOD    4   STEP   5
 BOUNDARY      1   LAYER   1   ROW    13   COL     1   RATE   -0.263005    
 BOUNDARY      2   LAYER   1   ROW    14   COL     9   RATE    0.208317    



 STREAM LISTING     PERIOD      4   STEP        5

 LAYER ROW COL. STREAM  RCH.  FLOW INTO     FLOW TO   FLOW OUT OF   OVRLND.     DIRECT     STREAM       STREAM     STREAM     STREAM   STREAMBED  STREAMBED
                SEG.NO.  NO.  STRM. RCH.    AQUIFER    STRM. RCH.    RUNOFF     PRECIP       ET          HEAD       DEPTH      WIDTH   CONDCTNC.   GRADIENT

   1    1    1     1     1    2.5000E+01  9.9981E-01   2.4000E+01  0.000E+00  0.000E+00  0.000E+00  1.09422E+03  1.173E+00  1.296E+01  5.833E-01  5.713E-01
   1    2    2     1     2    2.4000E+01  3.0212E+00   2.0979E+01  0.000E+00  0.000E+00  0.000E+00  1.08920E+03  1.141E+00  1.255E+01  8.783E-01  1.147E+00
   1    3    3     1     3    2.0979E+01  2.9113E+00   1.8068E+01  0.000E+00  0.000E+00  0.000E+00  1.08351E+03  1.092E+00  1.186E+01  7.114E-01  1.364E+00
   1    3    4     1     4    1.8068E+01  2.4733E+00   1.5594E+01  0.000E+00  0.000E+00  0.000E+00  1.07845E+03  1.046E+00  1.101E+01  6.112E-01  1.349E+00
   1    4    5     2     1    5.5944E+00  2.6658E+00   2.9286E+00  0.000E+00  0.000E+00  0.000E+00  1.07235E+03  4.177E-01  1.200E+01  7.800E-01  1.139E+00
   1    5    6     2     2    2.9286E+00  1.9568E+00   9.7179E-01  0.000E+00  0.000E+00  0.000E+00  1.06677E+03  2.613E-01  1.200E+01  6.000E-01  1.087E+00
   1    6    6     2     3    9.7179E-01  9.7179E-01   0.0000E+00  0.000E+00  0.000E+00  0.000E+00  1.06181E+03  1.936E-02  1.200E+01  6.000E-01  1.006E+00
   1    7    6     2     4    0.0000E+00  0.0000E+00   0.0000E+00  0.000E+00  0.000E+00  0.000E+00  1.05708E+03  0.000E+00  1.200E+01  6.000E-01  1.000E+00
   1    8    6     2     5    0.0000E+00  0.0000E+00   0.0000E+00  0.000E+00  0.000E+00  0.000E+00  1.05236E+03  0.000E+00  1.200E+01  6.000E-01  1.000E+00
   1    3    5     3     1    1.0000E+01  2.8252E+00   7.1748E+00  0.000E+00  0.000E+00  0.000E+00  1.07555E+03  1.909E+00  9.636E+00  7.227E-01  1.955E+00
   1    3    6     3     2    7.1748E+00  1.3827E+00   5.7921E+00  0.000E+00  0.000E+00  0.000E+00  1.07264E+03  1.727E+00  8.909E+00  6.682E-01  1.035E+00
   1    3    7     3     3    5.7921E+00  6.5198E-01   5.1401E+00  0.000E+00  0.000E+00  0.000E+00  1.06987E+03  1.555E+00  8.218E+00  5.547E-01  5.877E-01
   1    4    8     3     4    5.1401E+00  1.5811E+00   3.5590E+00  0.000E+00  0.000E+00  0.000E+00  1.06682E+03  1.364E+00  7.455E+00  6.709E-01  1.178E+00
   1    5    8     3     5    3.5590E+00  1.5790E+00   1.9801E+00  0.000E+00  0.000E+00  0.000E+00  1.06362E+03  1.164E+00  6.655E+00  4.991E-01  1.582E+00
   1    6    8     3     6    1.9801E+00  5.5980E-01   1.4203E+00  0.000E+00  0.000E+00  0.000E+00  1.06158E+03  1.036E+00  6.145E+00  1.844E-01  1.518E+00
   1    5   10     4     1    1.0000E+01  9.0525E-01   9.0947E+00  0.000E+00  0.000E+00  0.000E+00  1.07835E+03  6.210E-01  1.000E+01  2.500E-01  1.207E+00
   1    5    9     4     2    9.0947E+00  1.7835E+00   7.3113E+00  0.000E+00  0.000E+00  0.000E+00  1.07148E+03  5.670E-01  1.000E+01  5.000E-01  1.189E+00
   1    6    8     4     3    7.3113E+00  1.2257E+00   6.0855E+00  0.000E+00  0.000E+00  0.000E+00  1.06368E+03  5.021E-01  1.000E+01  3.500E-01  1.167E+00
   1    6    8     5     1    7.5058E+00  1.0810E+00   6.4248E+00  0.000E+00  0.000E+00  0.000E+00  1.05859E+03  5.918E-01  1.218E+01  4.871E-01  7.398E-01
   1    7    7     5     2    6.4248E+00  1.8708E+00   4.5541E+00  0.000E+00  0.000E+00  0.000E+00  1.05404E+03  5.444E-01  1.056E+01  5.278E-01  1.181E+00
   1    8    7     5     3    4.5541E+00  1.0690E+00   3.4851E+00  0.000E+00  0.000E+00  0.000E+00  1.04974E+03  4.882E-01  8.756E+00  3.064E-01  1.163E+00
   1    8    6     5     4    3.4851E+00  6.5323E-01   2.8319E+00  0.000E+00  0.000E+00  0.000E+00  1.04670E+03  4.487E-01  7.577E+00  1.894E-01  1.150E+00
   1    9    6     6     1    2.8319E+00  1.9539E+00   8.7802E-01  0.000E+00  0.000E+00  0.000E+00  1.04298E+03  2.564E-01  1.200E+01  6.000E-01  1.085E+00
   1   10    7     6     2    8.7802E-01  8.7802E-01   0.0000E+00  0.000E+00  0.000E+00  0.000E+00  1.03822E+03  3.683E-02  1.200E+01  6.000E-01  1.012E+00
   1   11    7     6     3    0.0000E+00  0.0000E+00   0.0000E+00  0.000E+00  0.000E+00  0.000E+00  1.03364E+03  0.000E+00  1.200E+01  6.000E-01  1.000E+00
   1   12    7     6     4    0.0000E+00  0.0000E+00   0.0000E+00  0.000E+00  0.000E+00  0.000E+00  1.02909E+03  0.000E+00  1.200E+01  6.000E-01  3.418E-01
   1   13    7     6     5    0.0000E+00 -7.7238E-01   7.7238E-01  0.000E+00  0.000E+00  0.000E+00  1.02601E+03  1.000E-01  1.200E+01  2.400E-01 -1.073E+00
   1   14    9     7     1    1.5000E+02  1.9505E+00   1.4805E+02  0.000E+00  0.000E+00  0.000E+00  1.03987E+03  2.286E+00  5.529E+01  5.592E+00  1.163E-01
   1   13    8     7     2    1.4805E+02  2.9631E+00   1.4509E+02  0.000E+00  0.000E+00  0.000E+00  1.03477E+03  2.273E+00  5.523E+01  6.144E+00  1.607E-01
   1   13    7     7     3    1.4509E+02  2.5122E+00   1.4257E+02  0.000E+00  0.000E+00  0.000E+00  1.02968E+03  2.258E+00  5.516E+01  5.579E+00  1.501E-01
   1   13    6     8     1    1.4335E+02  7.5908E-01   1.4259E+02  0.000E+00  0.000E+00  0.000E+00  1.02464E+03  2.767E+00  4.012E+01  4.088E+00  6.190E-02
   1   13    5     8     2    1.4259E+02 -2.2144E+00   1.4480E+02  0.000E+00  0.000E+00  0.000E+00  1.01840E+03  2.772E+00  4.019E+01  4.096E+00 -1.802E-01
   1   13    4     8     3    1.4480E+02 -4.0464E+00   1.4885E+02  0.000E+00  0.000E+00  0.000E+00  1.01217E+03  2.794E+00  4.052E+01  4.129E+00 -3.267E-01
   1   13    3     8     4    1.4885E+02 -4.3034E+00   1.5315E+02  0.000E+00  0.000E+00  0.000E+00  1.00595E+03  2.824E+00  4.095E+01  4.173E+00 -3.438E-01
   1   13    2     8     5    1.5315E+02 -2.0999E+00   1.5525E+02  0.000E+00  0.000E+00  0.000E+00  9.99721E+02  2.846E+00  4.127E+01  4.206E+00 -1.664E-01
   1   13    1     8     6    1.5525E+02 -4.8370E-01   1.5574E+02  0.000E+00  0.000E+00  0.000E+00  9.94730E+02  2.855E+00  4.140E+01  2.531E+00 -6.370E-02



 UBDSV3 SAVING "           GW ET" ON UNIT  61 AT TIME STEP  5, STRESS PERIOD   4
 UBDSV3 SAVING "    UZF RECHARGE" ON UNIT  61 AT TIME STEP  5, STRESS PERIOD   4
 UBDSV3 SAVING " SURFACE LEAKAGE" ON UNIT  61 AT TIME STEP  5, STRESS PERIOD   4
 UBDSV3 SAVING "       HORT+DUNN" ON UNIT  61 AT TIME STEP  5, STRESS PERIOD   4
 UBDSV3 SAVING "  STORAGE CHANGE" ON UNIT  61 AT TIME STEP  5, STRESS PERIOD   4


UNSATURATED ZONE PACKAGE VOLUMETRIC BUDGET FOR  TIME STEP     5 STRESS PERIOD    4
  ------------------------------------------------------------------------------



     CUMULATIVE VOLUMES      L**3       RATES FOR THIS TIME STEP      L**3/T
     ------------------                 ------------------------

           IN:                                      IN:
           ---                                      ---
        INFILTRATION =   508766348.8711          INFILTRATION =         169.5000

          OUT:                                     OUT:
          ----                                     ----
              UZF ET =   693340006.4719                UZF ET =         104.4083
        UZF RECHARGE =    93986170.1866          UZF RECHARGE =          18.1363

            IN - OUT =  -278559827.7875              IN - OUT =          46.9555

          STORAGE:                                 STORAGE:
          --------                                 --------
      STORAGE CHANGE =  -278454303.1253        STORAGE CHANGE =          46.9785

 PERCENT DISCREPANCY IS DIFFERENCE BETWEEN IN-OUT MINUS CHANGE IN STORAGE
 DIVIDED BY THE AVERAGE OF IN AND OUT TIMES 100

 PERCENT DISCREPANCY =          -0.00     PERCENT DISCREPANCY =          -0.01






1
  VOLUMETRIC BUDGET FOR ENTIRE MODEL AT END OF TIME STEP    5, STRESS PERIOD   4
  ------------------------------------------------------------------------------

     CUMULATIVE VOLUMES      L**3       RATES FOR THIS TIME STEP      L**3/T
     ------------------                 ------------------------

           IN:                                      IN:
           ---                                      ---
             STORAGE =      432513.7812               STORAGE =           0.2054
       CONSTANT HEAD =           0.0000         CONSTANT HEAD =           0.0000
               WELLS =           0.0000                 WELLS =           0.0000
     HEAD DEP BOUNDS =     1753199.1250       HEAD DEP BOUNDS =           0.2083
      STREAM LEAKAGE =   366362592.0000        STREAM LEAKAGE =          43.1849
        UZF RECHARGE =    93986184.0000          UZF RECHARGE =          18.1363
               GW ET =           0.0000                 GW ET =           0.0000
     SURFACE LEAKAGE =           0.0000       SURFACE LEAKAGE =           0.0000

            TOTAL IN =   462534496.0000              TOTAL IN =          61.7349

          OUT:                                     OUT:
          ----                                     ----
             STORAGE =    81895488.0000               STORAGE =          22.7366
       CONSTANT HEAD =           0.0000         CONSTANT HEAD =           0.0000
               WELLS =   136449696.0000                 WELLS =          10.0000
     HEAD DEP BOUNDS =     2198768.7500       HEAD DEP BOUNDS =           0.2630
      STREAM LEAKAGE =   107522944.0000        STREAM LEAKAGE =          13.9201
        UZF RECHARGE =           0.0000          UZF RECHARGE =           0.0000
               GW ET =   134381904.0000                 GW ET =          14.7677
     SURFACE LEAKAGE =           0.0000       SURFACE LEAKAGE =           0.0000

           TOTAL OUT =   462448768.0000             TOTAL OUT =          61.6874

            IN - OUT =       85728.0000              IN - OUT =       4.7501E-02

 PERCENT DISCREPANCY =           0.02     PERCENT DISCREPANCY =           0.08






         TIME SUMMARY AT END OF TIME STEP    5 IN STRESS PERIOD    4
                    SECONDS     MINUTES      HOURS       DAYS        YEARS
                    -----------------------------------------------------------
   TIME STEP LENGTH 1.21100E+05  2018.3      33.639      1.4016     3.83743E-03
 STRESS PERIOD TIME 5.04972E+05  8416.2      140.27      5.8446     1.60016E-02
         TOTAL TIME 8.38897E+06 1.39816E+05  2330.3      97.095     0.26583    
1
 
 SOLVING FOR HEAD 
    10 ITERATIONS FOR TIME STEP   6 IN STRESS PERIOD    4

 MAXIMUM HEAD CHANGE FOR EACH ITERATION:

    HEAD CHANGE   HEAD CHANGE   HEAD CHANGE   HEAD CHANGE   HEAD CHANGE
  LAYER,ROW,COL LAYER,ROW,COL LAYER,ROW,COL LAYER,ROW,COL LAYER,ROW,COL
 ----------------------------------------------------------------------
     0.2863E-01    0.1570E-01    0.7891E-02    0.4294E-02    0.2255E-02
  (  1,  3,  5) (  1,  3,  5) (  1,  3,  5) (  1,  3,  5) (  1,  3,  5)
     0.1227E-02    0.6334E-03    0.3592E-03    0.2270E-03    0.1228E-03
  (  1,  3,  5) (  1,  3,  5) (  1,  3,  5) (  1,  3,  5) (  1,  3,  5)


 NO OUTPUT CONTROL FOR STRESS PERIOD    4   TIME STEP    6
 
 SOLVING FOR HEAD 
    14 ITERATIONS FOR TIME STEP   7 IN STRESS PERIOD    4

 MAXIMUM HEAD CHANGE FOR EACH ITERATION:

    HEAD CHANGE   HEAD CHANGE   HEAD CHANGE   HEAD CHANGE   HEAD CHANGE
  LAYER,ROW,COL LAYER,ROW,COL LAYER,ROW,COL LAYER,ROW,COL LAYER,ROW,COL
 ----------------------------------------------------------------------
     0.7045E-01    0.4450E-01    0.2807E-01    0.1777E-01    0.1117E-01
  (  1,  3,  6) (  1,  3,  6) (  1,  3,  6) (  1,  3,  6) (  1,  3,  6)
     0.7021E-02    0.4480E-02    0.2777E-02    0.1751E-02    0.1119E-02
  (  1,  3,  6) (  1,  3,  6) (  1,  3,  6) (  1,  3,  6) (  1,  3,  6)
     0.7361E-03    0.4889E-03    0.2688E-03    0.1394E-03
  (  1,  3,  6) (  1,  3,  6) (  1,  3,  6) (  1,  3,  6)


 NO OUTPUT CONTROL FOR STRESS PERIOD    4   TIME STEP    7
 
 SOLVING FOR HEAD 
    15 ITERATIONS FOR TIME STEP   8 IN STRESS PERIOD    4

 MAXIMUM HEAD CHANGE FOR EACH ITERATION:

    HEAD CHANGE   HEAD CHANGE   HEAD CHANGE   HEAD CHANGE   HEAD CHANGE
  LAYER,ROW,COL LAYER,ROW,COL LAYER,ROW,COL LAYER,ROW,COL LAYER,ROW,COL
 ----------------------------------------------------------------------
     0.1040        0.6494E-01    0.4052E-01    0.2563E-01    0.1624E-01
  (  1,  3,  5) (  1,  3,  5) (  1,  3,  6) (  1,  3,  6) (  1,  3,  6)
     0.1031E-01    0.6486E-02    0.4121E-02    0.2611E-02    0.1651E-02
  (  1,  3,  6) (  1,  3,  6) (  1,  3,  6) (  1,  3,  6) (  1,  3,  6)
     0.1082E-02    0.6864E-03    0.4196E-03    0.2717E-03    0.1482E-03
  (  1,  3,  6) (  1,  3,  6) (  1,  3,  6) (  1,  3,  6) (  1,  3,  6)


 NO OUTPUT CONTROL FOR STRESS PERIOD    4   TIME STEP    8
 
 SOLVING FOR HEAD 
    15 ITERATIONS FOR TIME STEP   9 IN STRESS PERIOD    4

 MAXIMUM HEAD CHANGE FOR EACH ITERATION:

    HEAD CHANGE   HEAD CHANGE   HEAD CHANGE   HEAD CHANGE   HEAD CHANGE
  LAYER,ROW,COL LAYER,ROW,COL LAYER,ROW,COL LAYER,ROW,COL LAYER,ROW,COL
 ----------------------------------------------------------------------
     0.1152        0.7136E-01    0.4418E-01    0.2739E-01    0.1697E-01
  (  1,  3,  5) (  1,  3,  5) (  1,  3,  5) (  1,  3,  5) (  1,  3,  5)
     0.1049E-01    0.6505E-02    0.4039E-02    0.2529E-02    0.1571E-02
  (  1,  3,  5) (  1,  3,  5) (  1,  3,  5) (  1,  3,  5) (  1,  3,  5)
     0.9729E-03    0.6002E-03    0.3760E-03    0.2294E-03    0.1485E-03
  (  1,  3,  5) (  1,  3,  5) (  1,  3,  6) (  1,  3,  6) (  1,  3,  6)


 NO OUTPUT CONTROL FOR STRESS PERIOD    4   TIME STEP    9
 
 SOLVING FOR HEAD 
    15 ITERATIONS FOR TIME STEP  10 IN STRESS PERIOD    4

 MAXIMUM HEAD CHANGE FOR EACH ITERATION:

    HEAD CHANGE   HEAD CHANGE   HEAD CHANGE   HEAD CHANGE   HEAD CHANGE
  LAYER,ROW,COL LAYER,ROW,COL LAYER,ROW,COL LAYER,ROW,COL LAYER,ROW,COL
 ----------------------------------------------------------------------
     0.1040        0.6428E-01    0.3968E-01    0.2452E-01    0.1517E-01
  (  1,  3,  5) (  1,  3,  5) (  1,  3,  5) (  1,  3,  5) (  1,  3,  5)
     0.9341E-02    0.5789E-02    0.3591E-02    0.2210E-02    0.1384E-02
  (  1,  3,  5) (  1,  3,  5) (  1,  3,  5) (  1,  3,  5) (  1,  3,  5)
     0.8297E-03    0.5021E-03    0.3249E-03    0.2329E-03    0.1451E-03
  (  1,  3,  5) (  1,  3,  6) (  1,  3,  6) (  1,  3,  6) (  1,  3,  5)


 OUTPUT CONTROL FOR STRESS PERIOD    4   TIME STEP   10
    PRINT BUDGET
    SAVE BUDGET

            WELLS   PERIOD    4   STEP  10
 WELL      1   LAYER   1   ROW     6   COL     4   RATE    -1.00000    
 WELL      2   LAYER   1   ROW     6   COL     5   RATE    -1.00000    
 WELL      3   LAYER   1   ROW     7   COL     4   RATE    -1.00000    
 WELL      4   LAYER   1   ROW     7   COL     5   RATE    -1.00000    
 WELL      5   LAYER   1   ROW     8   COL     4   RATE    -1.00000    
 WELL      6   LAYER   1   ROW     8   COL     5   RATE    -1.00000    
 WELL      7   LAYER   1   ROW     9   COL     4   RATE    -1.00000    
 WELL      8   LAYER   1   ROW     9   COL     5   RATE    -1.00000    
 WELL      9   LAYER   1   ROW    10   COL     4   RATE    -1.00000    
 WELL     10   LAYER   1   ROW    10   COL     5   RATE    -1.00000    

  HEAD DEP BOUNDS   PERIOD    4   STEP  10
 BOUNDARY      1   LAYER   1   ROW    13   COL     1   RATE   -0.263111    
 BOUNDARY      2   LAYER   1   ROW    14   COL     9   RATE    0.208309    



 STREAM LISTING     PERIOD      4   STEP       10

 LAYER ROW COL. STREAM  RCH.  FLOW INTO     FLOW TO   FLOW OUT OF   OVRLND.     DIRECT     STREAM       STREAM     STREAM     STREAM   STREAMBED  STREAMBED
                SEG.NO.  NO.  STRM. RCH.    AQUIFER    STRM. RCH.    RUNOFF     PRECIP       ET          HEAD       DEPTH      WIDTH   CONDCTNC.   GRADIENT

   1    1    1     1     1    2.5000E+01  9.9469E-01   2.4005E+01  0.000E+00  0.000E+00  0.000E+00  1.09422E+03  1.173E+00  1.296E+01  5.833E-01  5.684E-01
   1    2    2     1     2    2.4005E+01  3.0141E+00   2.0991E+01  0.000E+00  0.000E+00  0.000E+00  1.08920E+03  1.142E+00  1.255E+01  8.784E-01  1.144E+00
   1    3    3     1     3    2.0991E+01  2.9123E+00   1.8079E+01  0.000E+00  0.000E+00  0.000E+00  1.08351E+03  1.093E+00  1.186E+01  7.116E-01  1.364E+00
   1    3    4     1     4    1.8079E+01  2.4742E+00   1.5605E+01  0.000E+00  0.000E+00  0.000E+00  1.07845E+03  1.047E+00  1.102E+01  6.114E-01  1.349E+00
   1    4    5     2     1    5.6047E+00  2.6663E+00   2.9384E+00  0.000E+00  0.000E+00  0.000E+00  1.07235E+03  4.183E-01  1.200E+01  7.800E-01  1.139E+00
   1    5    6     2     2    2.9384E+00  1.9573E+00   9.8118E-01  0.000E+00  0.000E+00  0.000E+00  1.06677E+03  2.621E-01  1.200E+01  6.000E-01  1.087E+00
   1    6    6     2     3    9.8118E-01  9.8118E-01   0.0000E+00  0.000E+00  0.000E+00  0.000E+00  1.06181E+03  1.947E-02  1.200E+01  6.000E-01  1.006E+00
   1    7    6     2     4    0.0000E+00  0.0000E+00   0.0000E+00  0.000E+00  0.000E+00  0.000E+00  1.05708E+03  0.000E+00  1.200E+01  6.000E-01  1.000E+00
   1    8    6     2     5    0.0000E+00  0.0000E+00   0.0000E+00  0.000E+00  0.000E+00  0.000E+00  1.05236E+03  0.000E+00  1.200E+01  6.000E-01  1.000E+00
   1    3    5     3     1    1.0000E+01  2.1429E+00   7.8571E+00  0.000E+00  0.000E+00  0.000E+00  1.07555E+03  1.909E+00  9.636E+00  7.227E-01  1.483E+00
   1    3    6     3     2    7.8571E+00  7.2656E-01   7.1305E+00  0.000E+00  0.000E+00  0.000E+00  1.07264E+03  1.727E+00  8.909E+00  6.682E-01  5.437E-01
   1    3    7     3     3    7.1305E+00  3.2473E-01   6.8058E+00  0.000E+00  0.000E+00  0.000E+00  1.06987E+03  1.555E+00  8.218E+00  5.547E-01  2.927E-01
   1    4    8     3     4    6.8058E+00  1.5875E+00   5.2183E+00  0.000E+00  0.000E+00  0.000E+00  1.06682E+03  1.364E+00  7.455E+00  6.709E-01  1.183E+00
   1    5    8     3     5    5.2183E+00  1.5790E+00   3.6393E+00  0.000E+00  0.000E+00  0.000E+00  1.06362E+03  1.164E+00  6.655E+00  4.991E-01  1.582E+00
   1    6    8     3     6    3.6393E+00  5.5980E-01   3.0795E+00  0.000E+00  0.000E+00  0.000E+00  1.06158E+03  1.036E+00  6.145E+00  1.844E-01  1.518E+00
   1    5   10     4     1    1.0000E+01  9.0525E-01   9.0947E+00  0.000E+00  0.000E+00  0.000E+00  1.07835E+03  6.210E-01  1.000E+01  2.500E-01  1.207E+00
   1    5    9     4     2    9.0947E+00  1.7835E+00   7.3113E+00  0.000E+00  0.000E+00  0.000E+00  1.07148E+03  5.670E-01  1.000E+01  5.000E-01  1.189E+00
   1    6    8     4     3    7.3113E+00  1.2257E+00   6.0855E+00  0.000E+00  0.000E+00  0.000E+00  1.06368E+03  5.021E-01  1.000E+01  3.500E-01  1.167E+00
   1    6    8     5     1    9.1651E+00  1.2260E+00   7.9391E+00  0.000E+00  0.000E+00  0.000E+00  1.05864E+03  6.358E-01  1.377E+01  5.509E-01  7.418E-01
   1    7    7     5     2    7.9391E+00  2.1644E+00   5.7747E+00  0.000E+00  0.000E+00  0.000E+00  1.05409E+03  5.885E-01  1.206E+01  6.031E-01  1.196E+00
   1    8    7     5     3    5.7747E+00  1.2556E+00   4.5192E+00  0.000E+00  0.000E+00  0.000E+00  1.04978E+03  5.323E-01  1.016E+01  3.554E-01  1.177E+00
   1    8    6     5     4    4.5192E+00  7.7714E-01   3.7420E+00  0.000E+00  0.000E+00  0.000E+00  1.04674E+03  4.929E-01  8.900E+00  2.225E-01  1.164E+00
   1    9    6     6     1    3.7420E+00  1.9946E+00   1.7474E+00  0.000E+00  0.000E+00  0.000E+00  1.04305E+03  3.244E-01  1.200E+01  6.000E-01  1.108E+00
   1   10    7     6     2    1.7474E+00  1.7474E+00   0.0000E+00  0.000E+00  0.000E+00  0.000E+00  1.03824E+03  5.566E-02  1.200E+01  6.000E-01  1.019E+00
   1   11    7     6     3    0.0000E+00  0.0000E+00   0.0000E+00  0.000E+00  0.000E+00  0.000E+00  1.03364E+03  0.000E+00  1.200E+01  6.000E-01  1.000E+00
   1   12    7     6     4    0.0000E+00  0.0000E+00   0.0000E+00  0.000E+00  0.000E+00  0.000E+00  1.02909E+03  0.000E+00  1.200E+01  6.000E-01  3.350E-01
   1   13    7     6     5    0.0000E+00 -7.7781E-01   7.7781E-01  0.000E+00  0.000E+00  0.000E+00  1.02601E+03  1.004E-01  1.200E+01  2.400E-01 -1.080E+00
   1   14    9     7     1    1.5000E+02  1.9494E+00   1.4805E+02  0.000E+00  0.000E+00  0.000E+00  1.03987E+03  2.286E+00  5.529E+01  5.592E+00  1.162E-01
   1   13    8     7     2    1.4805E+02  2.9607E+00   1.4509E+02  0.000E+00  0.000E+00  0.000E+00  1.03477E+03  2.273E+00  5.523E+01  6.144E+00  1.606E-01
   1   13    7     7     3    1.4509E+02  2.3855E+00   1.4270E+02  0.000E+00  0.000E+00  0.000E+00  1.02968E+03  2.259E+00  5.516E+01  5.579E+00  1.425E-01
   1   13    6     8     1    1.4348E+02  6.2169E-01   1.4286E+02  0.000E+00  0.000E+00  0.000E+00  1.02464E+03  2.768E+00  4.014E+01  4.090E+00  5.067E-02
   1   13    5     8     2    1.4286E+02 -2.4727E+00   1.4533E+02  0.000E+00  0.000E+00  0.000E+00  1.01840E+03  2.775E+00  4.023E+01  4.100E+00 -2.010E-01
   1   13    4     8     3    1.4533E+02 -4.2596E+00   1.4959E+02  0.000E+00  0.000E+00  0.000E+00  1.01217E+03  2.799E+00  4.058E+01  4.136E+00 -3.433E-01
   1   13    3     8     4    1.4959E+02 -4.5439E+00   1.5414E+02  0.000E+00  0.000E+00  0.000E+00  1.00595E+03  2.830E+00  4.103E+01  4.181E+00 -3.622E-01
   1   13    2     8     5    1.5414E+02 -2.1026E+00   1.5624E+02  0.000E+00  0.000E+00  0.000E+00  9.99728E+02  2.853E+00  4.137E+01  4.216E+00 -1.663E-01
   1   13    1     8     6    1.5624E+02 -4.7478E-01   1.5671E+02  0.000E+00  0.000E+00  0.000E+00  9.94737E+02  2.862E+00  4.150E+01  2.537E+00 -6.238E-02



 UBDSV3 SAVING "           GW ET" ON UNIT  61 AT TIME STEP 10, STRESS PERIOD   4
 UBDSV3 SAVING "    UZF RECHARGE" ON UNIT  61 AT TIME STEP 10, STRESS PERIOD   4
 UBDSV3 SAVING " SURFACE LEAKAGE" ON UNIT  61 AT TIME STEP 10, STRESS PERIOD   4
 UBDSV3 SAVING "       HORT+DUNN" ON UNIT  61 AT TIME STEP 10, STRESS PERIOD   4
 UBDSV3 SAVING "  STORAGE CHANGE" ON UNIT  61 AT TIME STEP 10, STRESS PERIOD   4


UNSATURATED ZONE PACKAGE VOLUMETRIC BUDGET FOR  TIME STEP    10 STRESS PERIOD    4
  ------------------------------------------------------------------------------



     CUMULATIVE VOLUMES      L**3       RATES FOR THIS TIME STEP      L**3/T
     ------------------                 ------------------------

           IN:                                      IN:
           ---                                      ---
        INFILTRATION =   646614228.5352          INFILTRATION =         169.5000

          OUT:                                     OUT:
          ----                                     ----
              UZF ET =   778317607.5449                UZF ET =         104.4941
        UZF RECHARGE =   114545020.1196          UZF RECHARGE =          27.5030

            IN - OUT =  -246248399.1294              IN - OUT =          37.5029

          STORAGE:                                 STORAGE:
          --------                                 --------
      STORAGE CHANGE =  -246102220.0836        STORAGE CHANGE =          37.5596

 PERCENT DISCREPANCY IS DIFFERENCE BETWEEN IN-OUT MINUS CHANGE IN STORAGE
 DIVIDED BY THE AVERAGE OF IN AND OUT TIMES 100

 PERCENT DISCREPANCY =          -0.00     PERCENT DISCREPANCY =          -0.03






1
  VOLUMETRIC BUDGET FOR ENTIRE MODEL AT END OF TIME STEP   10, STRESS PERIOD   4
  ------------------------------------------------------------------------------

     CUMULATIVE VOLUMES      L**3       RATES FOR THIS TIME STEP      L**3/T
     ------------------                 ------------------------

           IN:                                      IN:
           ---                                      ---
             STORAGE =      567100.5000               STORAGE =           0.1439
       CONSTANT HEAD =           0.0000         CONSTANT HEAD =           0.0000
               WELLS =           0.0000                 WELLS =           0.0000
     HEAD DEP BOUNDS =     1922610.1250       HEAD DEP BOUNDS =           0.2083
      STREAM LEAKAGE =   401366144.0000        STREAM LEAKAGE =          42.9173
        UZF RECHARGE =   114545040.0000          UZF RECHARGE =          27.5030
               GW ET =           0.0000                 GW ET =           0.0000
     SURFACE LEAKAGE =           0.0000       SURFACE LEAKAGE =           0.0000

            TOTAL IN =   518400896.0000              TOTAL IN =          70.7726

          OUT:                                     OUT:
          ----                                     ----
             STORAGE =   105541200.0000               STORAGE =          30.7861
       CONSTANT HEAD =           0.0000         CONSTANT HEAD =           0.0000
               WELLS =   144582304.0000                 WELLS =          10.0000
     HEAD DEP BOUNDS =     2412710.0000       HEAD DEP BOUNDS =           0.2631
      STREAM LEAKAGE =   119242072.0000        STREAM LEAKAGE =          14.6313
        UZF RECHARGE =           0.0000          UZF RECHARGE =           0.0000
               GW ET =   146524608.0000                 GW ET =          15.0846
     SURFACE LEAKAGE =           0.0000       SURFACE LEAKAGE =           0.0000

           TOTAL OUT =   518302880.0000             TOTAL OUT =          70.7651

            IN - OUT =       98016.0000              IN - OUT =       7.4463E-03

 PERCENT DISCREPANCY =           0.02     PERCENT DISCREPANCY =           0.01






         TIME SUMMARY AT END OF TIME STEP   10 IN STRESS PERIOD    4
                    SECONDS     MINUTES      HOURS       DAYS        YEARS
                    -----------------------------------------------------------
   TIME STEP LENGTH 1.95033E+05  3250.6      54.176      2.2573     6.18023E-03
 STRESS PERIOD TIME 1.31823E+06  21971.      366.18      15.257     4.17723E-02
         TOTAL TIME 9.20223E+06 1.53371E+05  2556.2      106.51     0.29160    
1
 
 SOLVING FOR HEAD 
    14 ITERATIONS FOR TIME STEP  11 IN STRESS PERIOD    4

 MAXIMUM HEAD CHANGE FOR EACH ITERATION:

    HEAD CHANGE   HEAD CHANGE   HEAD CHANGE   HEAD CHANGE   HEAD CHANGE
  LAYER,ROW,COL LAYER,ROW,COL LAYER,ROW,COL LAYER,ROW,COL LAYER,ROW,COL
 ----------------------------------------------------------------------
     0.9241E-01    0.5661E-01    0.3473E-01    0.2130E-01    0.1305E-01
  (  1,  3,  5) (  1,  3,  5) (  1,  3,  5) (  1,  3,  5) (  1,  3,  5)
     0.7979E-02    0.4907E-02    0.3062E-02    0.1899E-02    0.1177E-02
  (  1,  3,  5) (  1,  3,  5) (  1,  3,  6) (  1,  3,  6) (  1,  3,  6)
     0.7257E-03    0.4510E-03    0.2740E-03    0.1775E-03
  (  1,  3,  6) (  1,  3,  6) (  1,  3,  6) (  1,  3,  6)


 NO OUTPUT CONTROL FOR STRESS PERIOD    4   TIME STEP   11
 
 SOLVING FOR HEAD 
    14 ITERATIONS FOR TIME STEP  12 IN STRESS PERIOD    4

 MAXIMUM HEAD CHANGE FOR EACH ITERATION:

    HEAD CHANGE   HEAD CHANGE   HEAD CHANGE   HEAD CHANGE   HEAD CHANGE
  LAYER,ROW,COL LAYER,ROW,COL LAYER,ROW,COL LAYER,ROW,COL LAYER,ROW,COL
 ----------------------------------------------------------------------
     0.8253E-01    0.5049E-01    0.3087E-01    0.1892E-01    0.1158E-01
  (  1,  3,  5) (  1,  3,  5) (  1,  3,  5) (  1,  3,  5) (  1,  3,  5)
     0.7180E-02    0.4448E-02    0.2762E-02    0.1755E-02    0.1086E-02
  (  1,  3,  6) (  1,  3,  6) (  1,  3,  6) (  1,  3,  6) (  1,  3,  6)
     0.6181E-03    0.3912E-03    0.2780E-03    0.1880E-03
  (  1,  3,  6) (  1,  3,  6) (  1,  3,  6) (  1,  3,  6)


 NO OUTPUT CONTROL FOR STRESS PERIOD    4   TIME STEP   12
 
 SOLVING FOR HEAD 
    14 ITERATIONS FOR TIME STEP  13 IN STRESS PERIOD    4

 MAXIMUM HEAD CHANGE FOR EACH ITERATION:

    HEAD CHANGE   HEAD CHANGE   HEAD CHANGE   HEAD CHANGE   HEAD CHANGE
  LAYER,ROW,COL LAYER,ROW,COL LAYER,ROW,COL LAYER,ROW,COL LAYER,ROW,COL
 ----------------------------------------------------------------------
     0.6952E-01    0.4219E-01    0.2556E-01    0.1576E-01    0.9726E-02
  (  1,  3,  5) (  1,  3,  5) (  1,  3,  5) (  1,  3,  6) (  1,  3,  6)
     0.6033E-02    0.3686E-02    0.2268E-02    0.1400E-02    0.8626E-03
  (  1,  3,  6) (  1,  3,  6) (  1,  3,  6) (  1,  3,  6) (  1,  3,  6)
     0.5369E-03    0.3256E-03    0.2101E-03    0.1863E-03
  (  1,  3,  6) (  1,  3,  6) (  1,  3,  6) (  1,  3,  6)


 NO OUTPUT CONTROL FOR STRESS PERIOD    4   TIME STEP   13
 
 SOLVING FOR HEAD 
    14 ITERATIONS FOR TIME STEP  14 IN STRESS PERIOD    4

 MAXIMUM HEAD CHANGE FOR EACH ITERATION:

    HEAD CHANGE   HEAD CHANGE   HEAD CHANGE   HEAD CHANGE   HEAD CHANGE
  LAYER,ROW,COL LAYER,ROW,COL LAYER,ROW,COL LAYER,ROW,COL LAYER,ROW,COL
 ----------------------------------------------------------------------
     0.5921E-01    0.3648E-01    0.2246E-01    0.1381E-01    0.8489E-02
  (  1,  3,  6) (  1,  3,  6) (  1,  3,  6) (  1,  3,  6) (  1,  3,  6)
     0.5273E-02    0.3199E-02    0.1989E-02    0.1269E-02    0.7291E-03
  (  1,  3,  6) (  1,  3,  6) (  1,  3,  6) (  1,  3,  6) (  1,  3,  6)
     0.4616E-03    0.2510E-03    0.2080E-03    0.1205E-03
  (  1,  3,  6) (  1,  3,  6) (  1,  3,  6) (  1,  3,  6)


 NO OUTPUT CONTROL FOR STRESS PERIOD    4   TIME STEP   14
 
 SOLVING FOR HEAD 
    13 ITERATIONS FOR TIME STEP  15 IN STRESS PERIOD    4

 MAXIMUM HEAD CHANGE FOR EACH ITERATION:

    HEAD CHANGE   HEAD CHANGE   HEAD CHANGE   HEAD CHANGE   HEAD CHANGE
  LAYER,ROW,COL LAYER,ROW,COL LAYER,ROW,COL LAYER,ROW,COL LAYER,ROW,COL
 ----------------------------------------------------------------------
     0.5321E-01    0.3196E-01    0.1960E-01    0.1198E-01    0.7331E-02
  (  1,  3,  7) (  1,  3,  6) (  1,  3,  6) (  1,  3,  6) (  1,  3,  6)
     0.4492E-02    0.2714E-02    0.1664E-02    0.1023E-02    0.6359E-03
  (  1,  3,  6) (  1,  3,  6) (  1,  3,  6) (  1,  3,  6) (  1,  3,  6)
     0.3846E-03    0.2497E-03    0.1357E-03
  (  1,  3,  6) (  1,  3,  6) (  1,  3,  6)


 OUTPUT CONTROL FOR STRESS PERIOD    4   TIME STEP   15
    PRINT BUDGET
    PRINT HEAD FOR ALL LAYERS
    SAVE HEAD FOR ALL LAYERS
    SAVE BUDGET

            WELLS   PERIOD    4   STEP  15
 WELL      1   LAYER   1   ROW     6   COL     4   RATE    -1.00000    
 WELL      2   LAYER   1   ROW     6   COL     5   RATE    -1.00000    
 WELL      3   LAYER   1   ROW     7   COL     4   RATE    -1.00000    
 WELL      4   LAYER   1   ROW     7   COL     5   RATE    -1.00000    
 WELL      5   LAYER   1   ROW     8   COL     4   RATE    -1.00000    
 WELL      6   LAYER   1   ROW     8   COL     5   RATE    -1.00000    
 WELL      7   LAYER   1   ROW     9   COL     4   RATE    -1.00000    
 WELL      8   LAYER   1   ROW     9   COL     5   RATE    -1.00000    
 WELL      9   LAYER   1   ROW    10   COL     4   RATE    -1.00000    
 WELL     10   LAYER   1   ROW    10   COL     5   RATE    -1.00000    

  HEAD DEP BOUNDS   PERIOD    4   STEP  15
 BOUNDARY      1   LAYER   1   ROW    13   COL     1   RATE   -0.263656    
 BOUNDARY      2   LAYER   1   ROW    14   COL     9   RATE    0.208306    



 STREAM LISTING     PERIOD      4   STEP       15

 LAYER ROW COL. STREAM  RCH.  FLOW INTO     FLOW TO   FLOW OUT OF   OVRLND.     DIRECT     STREAM       STREAM     STREAM     STREAM   STREAMBED  STREAMBED
                SEG.NO.  NO.  STRM. RCH.    AQUIFER    STRM. RCH.    RUNOFF     PRECIP       ET          HEAD       DEPTH      WIDTH   CONDCTNC.   GRADIENT

   1    1    1     1     1    2.5000E+01  9.8772E-01   2.4012E+01  0.000E+00  0.000E+00  0.000E+00  1.09422E+03  1.173E+00  1.296E+01  5.834E-01  5.644E-01
   1    2    2     1     2    2.4012E+01  3.0042E+00   2.1008E+01  0.000E+00  0.000E+00  0.000E+00  1.08920E+03  1.142E+00  1.255E+01  8.786E-01  1.140E+00
   1    3    3     1     3    2.1008E+01  2.9137E+00   1.8094E+01  0.000E+00  0.000E+00  0.000E+00  1.08351E+03  1.093E+00  1.187E+01  7.119E-01  1.364E+00
   1    3    4     1     4    1.8094E+01  2.4754E+00   1.5619E+01  0.000E+00  0.000E+00  0.000E+00  1.07845E+03  1.047E+00  1.102E+01  6.117E-01  1.349E+00
   1    4    5     2     1    5.6189E+00  2.6669E+00   2.9520E+00  0.000E+00  0.000E+00  0.000E+00  1.07235E+03  4.191E-01  1.200E+01  7.800E-01  1.140E+00
   1    5    6     2     2    2.9520E+00  1.9579E+00   9.9407E-01  0.000E+00  0.000E+00  0.000E+00  1.06677E+03  2.632E-01  1.200E+01  6.000E-01  1.088E+00
   1    6    6     2     3    9.9407E-01  9.9407E-01   0.0000E+00  0.000E+00  0.000E+00  0.000E+00  1.06181E+03  1.962E-02  1.200E+01  6.000E-01  1.007E+00
   1    7    6     2     4    0.0000E+00  0.0000E+00   0.0000E+00  0.000E+00  0.000E+00  0.000E+00  1.05708E+03  0.000E+00  1.200E+01  6.000E-01  1.000E+00
   1    8    6     2     5    0.0000E+00  0.0000E+00   0.0000E+00  0.000E+00  0.000E+00  0.000E+00  1.05236E+03  0.000E+00  1.200E+01  6.000E-01  1.000E+00
   1    3    5     3     1    1.0000E+01  1.4905E+00   8.5095E+00  0.000E+00  0.000E+00  0.000E+00  1.07555E+03  1.909E+00  9.636E+00  7.227E-01  1.031E+00
   1    3    6     3     2    8.5095E+00  1.3747E-01   8.3720E+00  0.000E+00  0.000E+00  0.000E+00  1.07264E+03  1.727E+00  8.909E+00  6.682E-01  1.029E-01
   1    3    7     3     3    8.3720E+00 -7.0139E-02   8.4422E+00  0.000E+00  0.000E+00  0.000E+00  1.06987E+03  1.555E+00  8.218E+00  5.547E-01 -6.322E-02
   1    4    8     3     4    8.4422E+00  1.5829E+00   6.8593E+00  0.000E+00  0.000E+00  0.000E+00  1.06682E+03  1.364E+00  7.455E+00  6.709E-01  1.180E+00
   1    5    8     3     5    6.8593E+00  1.5790E+00   5.2803E+00  0.000E+00  0.000E+00  0.000E+00  1.06362E+03  1.164E+00  6.655E+00  4.991E-01  1.582E+00
   1    6    8     3     6    5.2803E+00  5.5980E-01   4.7205E+00  0.000E+00  0.000E+00  0.000E+00  1.06158E+03  1.036E+00  6.145E+00  1.844E-01  1.518E+00
   1    5   10     4     1    1.0000E+01  9.0525E-01   9.0947E+00  0.000E+00  0.000E+00  0.000E+00  1.07835E+03  6.210E-01  1.000E+01  2.500E-01  1.207E+00
   1    5    9     4     2    9.0947E+00  1.7835E+00   7.3113E+00  0.000E+00  0.000E+00  0.000E+00  1.07148E+03  5.670E-01  1.000E+01  5.000E-01  1.189E+00
   1    6    8     4     3    7.3113E+00  1.2257E+00   6.0855E+00  0.000E+00  0.000E+00  0.000E+00  1.06368E+03  5.021E-01  1.000E+01  3.500E-01  1.167E+00
   1    6    8     5     1    1.0806E+01  1.3307E+00   9.4753E+00  0.000E+00  0.000E+00  0.000E+00  1.05867E+03  6.749E-01  1.526E+01  6.102E-01  7.269E-01
   1    7    7     5     2    9.4753E+00  2.4455E+00   7.0299E+00  0.000E+00  0.000E+00  0.000E+00  1.05413E+03  6.280E-01  1.348E+01  6.741E-01  1.209E+00
   1    8    7     5     3    7.0299E+00  1.4350E+00   5.5949E+00  0.000E+00  0.000E+00  0.000E+00  1.04982E+03  5.717E-01  1.148E+01  4.018E-01  1.191E+00
   1    8    6     5     4    5.5949E+00  8.9677E-01   4.6981E+00  0.000E+00  0.000E+00  0.000E+00  1.04678E+03  5.323E-01  1.016E+01  2.539E-01  1.177E+00
   1    9    6     6     1    4.6981E+00  2.0321E+00   2.6660E+00  0.000E+00  0.000E+00  0.000E+00  1.04311E+03  3.869E-01  1.200E+01  6.000E-01  1.129E+00
   1   10    7     6     2    2.6660E+00  1.9457E+00   7.2033E-01  0.000E+00  0.000E+00  0.000E+00  1.03842E+03  2.428E-01  1.200E+01  6.000E-01  1.081E+00
   1   11    7     6     3    7.2033E-01  7.2033E-01   0.0000E+00  0.000E+00  0.000E+00  0.000E+00  1.03367E+03  3.271E-02  1.200E+01  6.000E-01  1.011E+00
   1   12    7     6     4    0.0000E+00  0.0000E+00   0.0000E+00  0.000E+00  0.000E+00  0.000E+00  1.02909E+03  0.000E+00  1.200E+01  6.000E-01  3.191E-01
   1   13    7     6     5    0.0000E+00 -7.9701E-01   7.9701E-01  0.000E+00  0.000E+00  0.000E+00  1.02601E+03  1.019E-01  1.200E+01  2.400E-01 -1.107E+00
   1   14    9     7     1    1.5000E+02  1.9489E+00   1.4805E+02  0.000E+00  0.000E+00  0.000E+00  1.03987E+03  2.286E+00  5.529E+01  5.592E+00  1.162E-01
   1   13    8     7     2    1.4805E+02  2.9358E+00   1.4512E+02  0.000E+00  0.000E+00  0.000E+00  1.03477E+03  2.273E+00  5.523E+01  6.144E+00  1.593E-01
   1   13    7     7     3    1.4512E+02  1.9387E+00   1.4318E+02  0.000E+00  0.000E+00  0.000E+00  1.02968E+03  2.260E+00  5.517E+01  5.579E+00  1.158E-01
   1   13    6     8     1    1.4397E+02  2.5746E-01   1.4372E+02  0.000E+00  0.000E+00  0.000E+00  1.02465E+03  2.773E+00  4.021E+01  4.097E+00  2.095E-02
   1   13    5     8     2    1.4372E+02 -2.6025E+00   1.4632E+02  0.000E+00  0.000E+00  0.000E+00  1.01841E+03  2.781E+00  4.033E+01  4.110E+00 -2.111E-01
   1   13    4     8     3    1.4632E+02 -4.3623E+00   1.5068E+02  0.000E+00  0.000E+00  0.000E+00  1.01218E+03  2.806E+00  4.069E+01  4.147E+00 -3.507E-01
   1   13    3     8     4    1.5068E+02 -4.6388E+00   1.5532E+02  0.000E+00  0.000E+00  0.000E+00  1.00596E+03  2.838E+00  4.115E+01  4.193E+00 -3.688E-01
   1   13    2     8     5    1.5532E+02 -2.1152E+00   1.5743E+02  0.000E+00  0.000E+00  0.000E+00  9.99736E+02  2.861E+00  4.149E+01  4.228E+00 -1.668E-01
   1   13    1     8     6    1.5743E+02 -4.9167E-01   1.5793E+02  0.000E+00  0.000E+00  0.000E+00  9.94745E+02  2.870E+00  4.162E+01  2.545E+00 -6.441E-02



 UBDSV3 SAVING "           GW ET" ON UNIT  61 AT TIME STEP 15, STRESS PERIOD   4
 UBDSV3 SAVING "    UZF RECHARGE" ON UNIT  61 AT TIME STEP 15, STRESS PERIOD   4
 UBDSV3 SAVING " SURFACE LEAKAGE" ON UNIT  61 AT TIME STEP 15, STRESS PERIOD   4
 UBDSV3 SAVING "       HORT+DUNN" ON UNIT  61 AT TIME STEP 15, STRESS PERIOD   4
 UBDSV3 SAVING "  STORAGE CHANGE" ON UNIT  61 AT TIME STEP 15, STRESS PERIOD   4


UNSATURATED ZONE PACKAGE VOLUMETRIC BUDGET FOR  TIME STEP    15 STRESS PERIOD    4
  ------------------------------------------------------------------------------



     CUMULATIVE VOLUMES      L**3       RATES FOR THIS TIME STEP      L**3/T
     ------------------                 ------------------------

           IN:                                      IN:
           ---                                      ---
        INFILTRATION =   868619630.7227          INFILTRATION =         169.5000

          OUT:                                     OUT:
          ----                                     ----
              UZF ET =   897555970.8271                UZF ET =          91.5068
        UZF RECHARGE =   149063975.5712          UZF RECHARGE =          25.7738

            IN - OUT =  -178000315.6757              IN - OUT =          52.2194

          STORAGE:                                 STORAGE:
          --------                                 --------
      STORAGE CHANGE =  -177802768.3702        STORAGE CHANGE =          52.2294

 PERCENT DISCREPANCY IS DIFFERENCE BETWEEN IN-OUT MINUS CHANGE IN STORAGE
 DIVIDED BY THE AVERAGE OF IN AND OUT TIMES 100

 PERCENT DISCREPANCY =          -0.00     PERCENT DISCREPANCY =          -0.01






1
              HEAD IN LAYER   1 AT END OF TIME STEP  15 IN STRESS PERIOD    4
  ---------------------------------------------------------------------------

           1       2       3       4       5       6       7       8       9      10
 ...................................................................................
   1  1092.53 1088.69 6999.00 6999.00 6999.00 6999.00 6999.00 6999.00 6999.00 6999.00
   2  1089.19 1085.78 1079.11 6999.00 6999.00 1071.88 1071.05 1070.40 6999.00 6999.00
   3  6999.00 1077.40 1074.31 1070.19 1073.48 1072.43 1070.00 1068.03 6999.00 6999.00
   4  1067.82 1068.32 1066.51 1062.93 1061.90 1060.65 1061.45 1064.46 1063.77 6999.00
   5  1063.68 1061.24 1058.50 1056.43 1056.20 1056.88 1056.92 1059.30 1062.91 1065.33
   6  1058.99 1055.29 1052.05 1050.17 1050.52 1052.25 1053.76 1056.49 1059.29 1063.63
   7  1055.33 1049.61 1046.15 1044.48 1045.16 1047.21 1050.01 1052.51 1054.08 6999.00
   8  6999.00 1042.26 1040.07 1038.89 1039.85 1042.13 1044.19 1046.96 1049.12 6999.00
   9  6999.00 1035.33 1034.10 1033.57 1034.85 1037.26 1038.34 1040.47 1043.70 6999.00
  10  6999.00 1028.31 1028.20 1028.77 1030.32 1032.43 1034.15 1035.97 1039.95 1044.37
  11  6999.00 1019.59 1021.05 1024.33 1026.43 1028.63 1030.36 1032.69 1036.24 6999.00
  12  1001.16 1008.82 1014.05 1018.81 1022.47 1025.72 1028.13 1031.04 1034.83 6999.00
  13   994.94 1000.24 1007.07 1013.23 1019.04 1024.59 1029.33 1034.30 1036.48 6999.00
  14  6999.00 1005.82 1011.51 1016.23 1021.27 1026.08 1030.47 1035.35 1039.52 6999.00
  15  6999.00 6999.00 1018.83 1021.82 1025.56 1028.54 6999.00 6999.00 6999.00 6999.00

 HEAD WILL BE SAVED ON UNIT   58 AT END OF TIME STEP   15, STRESS PERIOD    4
1
  VOLUMETRIC BUDGET FOR ENTIRE MODEL AT END OF TIME STEP   15, STRESS PERIOD   4
  ------------------------------------------------------------------------------

     CUMULATIVE VOLUMES      L**3       RATES FOR THIS TIME STEP      L**3/T
     ------------------                 ------------------------

           IN:                                      IN:
           ---                                      ---
             STORAGE =      701079.5625               STORAGE =       8.1612E-02
       CONSTANT HEAD =           0.0000         CONSTANT HEAD =           0.0000
               WELLS =           0.0000                 WELLS =           0.0000
     HEAD DEP BOUNDS =     2195441.5000       HEAD DEP BOUNDS =           0.2083
      STREAM LEAKAGE =   456950976.0000        STREAM LEAKAGE =          42.1511
        UZF RECHARGE =   149064000.0000          UZF RECHARGE =          25.7738
               GW ET =           0.0000                 GW ET =           0.0000
     SURFACE LEAKAGE =           0.0000       SURFACE LEAKAGE =           0.0000

            TOTAL IN =   608911488.0000              TOTAL IN =          68.2147

          OUT:                                     OUT:
          ----                                     ----
             STORAGE =   142991712.0000               STORAGE =          27.3985
       CONSTANT HEAD =           0.0000         CONSTANT HEAD =           0.0000
               WELLS =   157679968.0000                 WELLS =          10.0000
     HEAD DEP BOUNDS =     2757600.2500       HEAD DEP BOUNDS =           0.2637
      STREAM LEAKAGE =   138752016.0000        STREAM LEAKAGE =          15.0777
        UZF RECHARGE =           0.0000          UZF RECHARGE =           0.0000
               GW ET =   166627008.0000                 GW ET =          15.4832
     SURFACE LEAKAGE =           0.0000       SURFACE LEAKAGE =           0.0000

           TOTAL OUT =   608808320.0000             TOTAL OUT =          68.2230

            IN - OUT =      103168.0000              IN - OUT =      -8.3160E-03

 PERCENT DISCREPANCY =           0.02     PERCENT DISCREPANCY =          -0.01






         TIME SUMMARY AT END OF TIME STEP   15 IN STRESS PERIOD    4
                    SECONDS     MINUTES      HOURS       DAYS        YEARS
                    -----------------------------------------------------------
   TIME STEP LENGTH 3.14103E+05  5235.0      87.251      3.6354     9.95332E-03
 STRESS PERIOD TIME 2.62800E+06  43800.      730.00      30.417     8.32763E-02
         TOTAL TIME 1.05120E+07 1.75200E+05  2920.0      121.67     0.33311    
1
1
                            STRESS PERIOD NO.    5, LENGTH =   2628000.    
                            -----------------------------------------------

                              NUMBER OF TIME STEPS =    15

                               MULTIPLIER FOR DELT =     1.100

                            INITIAL TIME STEP SIZE =   82713.07    

 WELL NO.  LAYER   ROW   COL   STRESS RATE         
 --------------------------------------------------
      1      1      6      4      -3.000    
      2      1      6      5      -3.000    
      3      1      7      4      -3.000    
      4      1      7      5      -3.000    
      5      1      8      4      -3.000    
      6      1      8      5      -3.000    
      7      1      9      4      -3.000    
      8      1      9      5      -3.000    
      9      1     10      4      -3.000    
     10      1     10      5      -3.000    

     10 WELLS

 REUSING NON-PARAMETER GHB CELLS FROM LAST STRESS PERIOD

      2 GHB CELLS

 REUSING STREAM SEGMENT DATA FROM LAST STRESS PERIOD



            AREAL INFILTRATION RATE
 READING ON UNIT   19 WITH FORMAT: (10F4.0)            

            1           2           3           4           5           6           7           8           9          10
 ........................................................................................................................
   1   5.0000E-09  1.0000E-08   0.000       0.000       0.000       0.000       0.000       0.000       0.000       0.000    
   2   1.0000E-08  5.0000E-09  1.0000E-08   0.000       0.000      4.0000E-08  4.0000E-08  2.5000E-08   0.000       0.000    
   3    0.000      2.5000E-08  5.0000E-09  5.0000E-09  4.0000E-08  4.0000E-08  2.5000E-08  2.5000E-08   0.000       0.000    
   4   4.0000E-08  2.5000E-08  5.0000E-09  5.0000E-09  5.0000E-09  5.0000E-09  5.0000E-09  5.0000E-09  1.0000E-08   0.000    
   5   4.0000E-08  2.5000E-08  5.0000E-09  5.0000E-09  5.0000E-09  5.0000E-09  5.0000E-09  5.0000E-09  5.0000E-09  5.0000E-09
   6   4.0000E-08  2.5000E-08  2.5000E-08  1.0000E-08  1.0000E-08  5.0000E-09  5.0000E-09  5.0000E-09  5.0000E-09  2.5000E-08
   7   4.0000E-08  2.5000E-08  2.5000E-08  1.0000E-08  1.0000E-08  5.0000E-09  5.0000E-09  1.0000E-08  1.0000E-08   0.000    
   8    0.000      2.5000E-08  2.5000E-08  1.0000E-08  1.0000E-08  5.0000E-09  5.0000E-09  1.0000E-08  2.5000E-08   0.000    
   9    0.000      2.5000E-08  2.5000E-08  1.0000E-08  1.0000E-08  5.0000E-09  5.0000E-09  1.0000E-08  2.5000E-08   0.000    
  10    0.000      2.5000E-08  2.5000E-08  1.0000E-08  1.0000E-08  5.0000E-09  5.0000E-09  1.0000E-08  2.5000E-08  4.0000E-08
  11    0.000      5.0000E-09  5.0000E-09  5.0000E-09  5.0000E-09  5.0000E-09  5.0000E-09  1.0000E-08  2.5000E-08   0.000    
  12   5.0000E-09  5.0000E-09  5.0000E-09  5.0000E-09  5.0000E-09  5.0000E-09  5.0000E-09  5.0000E-09  1.0000E-08   0.000    
  13   5.0000E-09  5.0000E-09  1.0000E-08  1.0000E-08  1.0000E-08  1.0000E-08  1.0000E-08  5.0000E-09  5.0000E-09   0.000    
  14    0.000      1.0000E-08  2.5000E-08  2.5000E-08  2.5000E-08  2.5000E-08  2.5000E-08  1.0000E-08  5.0000E-09   0.000    
  15    0.000       0.000      4.0000E-08  4.0000E-08  4.0000E-08  4.0000E-08   0.000       0.000       0.000       0.000    

USING ET RATE FROM PREVIOUS STRESS PERIOD. CURRENT PERIOD IS:       5

 USING ET EXTINCTION DEPTH FROM PREVIOUS STRESS PERIOD. CURRENT PERIOD IS:       5

 USING EXTINCTION WATER CONTENT FROM PREVIOUS STRESS PERIOD. CURRENT PERIOD IS:       5
 
 SOLVING FOR HEAD 

    11 ITERATIONS FOR TIME STEP   1 IN STRESS PERIOD    5

 MAXIMUM HEAD CHANGE FOR EACH ITERATION:

    HEAD CHANGE   HEAD CHANGE   HEAD CHANGE   HEAD CHANGE   HEAD CHANGE
  LAYER,ROW,COL LAYER,ROW,COL LAYER,ROW,COL LAYER,ROW,COL LAYER,ROW,COL
 ----------------------------------------------------------------------
    -0.1982E-01    0.7481E-02    0.4796E-02    0.3158E-02    0.2030E-02
  (  1,  6,  5) (  1,  3,  6) (  1,  3,  6) (  1,  3,  6) (  1,  3,  6)
     0.1304E-02    0.8597E-03    0.5707E-03    0.3138E-03    0.2624E-03
  (  1,  3,  6) (  1,  3,  6) (  1,  3,  6) (  1,  3,  6) (  1,  3,  6)
     0.1521E-03
  (  1,  3,  6)


 NO OUTPUT CONTROL FOR STRESS PERIOD    5   TIME STEP    1
 
 SOLVING FOR HEAD 
    11 ITERATIONS FOR TIME STEP   2 IN STRESS PERIOD    5

 MAXIMUM HEAD CHANGE FOR EACH ITERATION:

    HEAD CHANGE   HEAD CHANGE   HEAD CHANGE   HEAD CHANGE   HEAD CHANGE
  LAYER,ROW,COL LAYER,ROW,COL LAYER,ROW,COL LAYER,ROW,COL LAYER,ROW,COL
 ----------------------------------------------------------------------
    -0.2182E-01    0.7559E-02    0.4848E-02    0.3160E-02    0.2056E-02
  (  1,  6,  4) (  1,  3,  7) (  1,  3,  6) (  1,  3,  6) (  1,  3,  6)
     0.1341E-02    0.8701E-03    0.5568E-03    0.3302E-03    0.2300E-03
  (  1,  3,  6) (  1,  3,  6) (  1,  3,  6) (  1,  3,  6) (  1,  3,  6)
     0.1554E-03
  (  1,  3,  6)


 NO OUTPUT CONTROL FOR STRESS PERIOD    5   TIME STEP    2
 
 SOLVING FOR HEAD 
    11 ITERATIONS FOR TIME STEP   3 IN STRESS PERIOD    5

 MAXIMUM HEAD CHANGE FOR EACH ITERATION:

    HEAD CHANGE   HEAD CHANGE   HEAD CHANGE   HEAD CHANGE   HEAD CHANGE
  LAYER,ROW,COL LAYER,ROW,COL LAYER,ROW,COL LAYER,ROW,COL LAYER,ROW,COL
 ----------------------------------------------------------------------
    -0.2320E-01    0.7867E-02    0.4956E-02    0.3213E-02    0.2082E-02
  (  1,  6,  4) (  1,  3,  7) (  1,  3,  6) (  1,  3,  6) (  1,  3,  6)
     0.1316E-02    0.8624E-03    0.5919E-03    0.3578E-03    0.2515E-03
  (  1,  3,  6) (  1,  3,  6) (  1,  3,  6) (  1,  3,  6) (  1,  3,  6)
     0.1699E-03
  (  1,  3,  6)


 NO OUTPUT CONTROL FOR STRESS PERIOD    5   TIME STEP    3
 
 SOLVING FOR HEAD 
    10 ITERATIONS FOR TIME STEP   4 IN STRESS PERIOD    5

 MAXIMUM HEAD CHANGE FOR EACH ITERATION:

    HEAD CHANGE   HEAD CHANGE   HEAD CHANGE   HEAD CHANGE   HEAD CHANGE
  LAYER,ROW,COL LAYER,ROW,COL LAYER,ROW,COL LAYER,ROW,COL LAYER,ROW,COL
 ----------------------------------------------------------------------
    -0.2488E-01    0.7744E-02    0.4453E-02    0.2831E-02    0.1796E-02
  (  1, 10,  4) (  1,  3,  7) (  1,  3,  7) (  1,  3,  5) (  1,  3,  5)
     0.1137E-02    0.7452E-03    0.4727E-03    0.2889E-03    0.1875E-03
  (  1,  3,  5) (  1,  3,  5) (  1,  3,  5) (  1,  3,  5) (  1,  3,  5)


 NO OUTPUT CONTROL FOR STRESS PERIOD    5   TIME STEP    4
 
 SOLVING FOR HEAD 
    11 ITERATIONS FOR TIME STEP   5 IN STRESS PERIOD    5

 MAXIMUM HEAD CHANGE FOR EACH ITERATION:

    HEAD CHANGE   HEAD CHANGE   HEAD CHANGE   HEAD CHANGE   HEAD CHANGE
  LAYER,ROW,COL LAYER,ROW,COL LAYER,ROW,COL LAYER,ROW,COL LAYER,ROW,COL
 ----------------------------------------------------------------------
    -0.3773E-01   -0.2128E-01   -0.1203E-01   -0.6852E-02   -0.3799E-02
  (  1,  3,  6) (  1,  3,  6) (  1,  3,  6) (  1,  3,  6) (  1,  3,  6)
    -0.2220E-02   -0.1133E-02   -0.7162E-03   -0.4215E-03   -0.2235E-03
  (  1,  3,  6) (  1,  3,  6) (  1,  3,  6) (  1,  3,  6) (  1,  3,  6)
    -0.1126E-03
  (  1,  3,  6)


 OUTPUT CONTROL FOR STRESS PERIOD    5   TIME STEP    5
    PRINT BUDGET
    SAVE BUDGET

            WELLS   PERIOD    5   STEP   5
 WELL      1   LAYER   1   ROW     6   COL     4   RATE    -3.00000    
 WELL      2   LAYER   1   ROW     6   COL     5   RATE    -3.00000    
 WELL      3   LAYER   1   ROW     7   COL     4   RATE    -3.00000    
 WELL      4   LAYER   1   ROW     7   COL     5   RATE    -3.00000    
 WELL      5   LAYER   1   ROW     8   COL     4   RATE    -3.00000    
 WELL      6   LAYER   1   ROW     8   COL     5   RATE    -3.00000    
 WELL      7   LAYER   1   ROW     9   COL     4   RATE    -3.00000    
 WELL      8   LAYER   1   ROW     9   COL     5   RATE    -3.00000    
 WELL      9   LAYER   1   ROW    10   COL     4   RATE    -3.00000    
 WELL     10   LAYER   1   ROW    10   COL     5   RATE    -3.00000    

  HEAD DEP BOUNDS   PERIOD    5   STEP   5
 BOUNDARY      1   LAYER   1   ROW    13   COL     1   RATE   -0.265261    
 BOUNDARY      2   LAYER   1   ROW    14   COL     9   RATE    0.208348    



 STREAM LISTING     PERIOD      5   STEP        5

 LAYER ROW COL. STREAM  RCH.  FLOW INTO     FLOW TO   FLOW OUT OF   OVRLND.     DIRECT     STREAM       STREAM     STREAM     STREAM   STREAMBED  STREAMBED
                SEG.NO.  NO.  STRM. RCH.    AQUIFER    STRM. RCH.    RUNOFF     PRECIP       ET          HEAD       DEPTH      WIDTH   CONDCTNC.   GRADIENT

   1    1    1     1     1    2.5000E+01  9.8664E-01   2.4013E+01  0.000E+00  0.000E+00  0.000E+00  1.09422E+03  1.173E+00  1.296E+01  5.834E-01  5.638E-01
   1    2    2     1     2    2.4013E+01  3.0027E+00   2.1011E+01  0.000E+00  0.000E+00  0.000E+00  1.08920E+03  1.142E+00  1.255E+01  8.786E-01  1.139E+00
   1    3    3     1     3    2.1011E+01  2.9139E+00   1.8097E+01  0.000E+00  0.000E+00  0.000E+00  1.08351E+03  1.093E+00  1.187E+01  7.120E-01  1.364E+00
   1    3    4     1     4    1.8097E+01  2.4756E+00   1.5621E+01  0.000E+00  0.000E+00  0.000E+00  1.07845E+03  1.047E+00  1.102E+01  6.117E-01  1.349E+00
   1    4    5     2     1    5.6211E+00  2.6670E+00   2.9541E+00  0.000E+00  0.000E+00  0.000E+00  1.07235E+03  4.193E-01  1.200E+01  7.800E-01  1.140E+00
   1    5    6     2     2    2.9541E+00  1.9580E+00   9.9610E-01  0.000E+00  0.000E+00  0.000E+00  1.06677E+03  2.633E-01  1.200E+01  6.000E-01  1.088E+00
   1    6    6     2     3    9.9610E-01  9.9610E-01   0.0000E+00  0.000E+00  0.000E+00  0.000E+00  1.06183E+03  3.929E-02  1.200E+01  6.000E-01  1.013E+00
   1    7    6     2     4    0.0000E+00  0.0000E+00   0.0000E+00  0.000E+00  0.000E+00  0.000E+00  1.05708E+03  0.000E+00  1.200E+01  6.000E-01  1.000E+00
   1    8    6     2     5    0.0000E+00  0.0000E+00   0.0000E+00  0.000E+00  0.000E+00  0.000E+00  1.05236E+03  0.000E+00  1.200E+01  6.000E-01  1.000E+00
   1    3    5     3     1    1.0000E+01  1.4048E+00   8.5952E+00  0.000E+00  0.000E+00  0.000E+00  1.07555E+03  1.909E+00  9.636E+00  7.227E-01  9.719E-01
   1    3    6     3     2    8.5952E+00  1.2406E-01   8.4711E+00  0.000E+00  0.000E+00  0.000E+00  1.07264E+03  1.727E+00  8.909E+00  6.682E-01  9.283E-02
   1    3    7     3     3    8.4711E+00 -1.3082E-01   8.6019E+00  0.000E+00  0.000E+00  0.000E+00  1.06987E+03  1.555E+00  8.218E+00  5.547E-01 -1.179E-01
   1    4    8     3     4    8.6019E+00  1.5774E+00   7.0245E+00  0.000E+00  0.000E+00  0.000E+00  1.06682E+03  1.364E+00  7.455E+00  6.709E-01  1.176E+00
   1    5    8     3     5    7.0245E+00  1.5790E+00   5.4456E+00  0.000E+00  0.000E+00  0.000E+00  1.06362E+03  1.164E+00  6.655E+00  4.991E-01  1.582E+00
   1    6    8     3     6    5.4456E+00  5.5980E-01   4.8858E+00  0.000E+00  0.000E+00  0.000E+00  1.06158E+03  1.036E+00  6.145E+00  1.844E-01  1.518E+00
   1    5   10     4     1    1.0000E+01  9.0525E-01   9.0947E+00  0.000E+00  0.000E+00  0.000E+00  1.07835E+03  6.210E-01  1.000E+01  2.500E-01  1.207E+00
   1    5    9     4     2    9.0947E+00  1.7835E+00   7.3113E+00  0.000E+00  0.000E+00  0.000E+00  1.07148E+03  5.670E-01  1.000E+01  5.000E-01  1.189E+00
   1    6    8     4     3    7.3113E+00  1.2257E+00   6.0855E+00  0.000E+00  0.000E+00  0.000E+00  1.06368E+03  5.021E-01  1.000E+01  3.500E-01  1.167E+00
   1    6    8     5     1    1.0971E+01  1.3284E+00   9.6429E+00  0.000E+00  0.000E+00  0.000E+00  1.05868E+03  6.788E-01  1.541E+01  6.162E-01  7.186E-01
   1    7    7     5     2    9.6429E+00  2.4753E+00   7.1676E+00  0.000E+00  0.000E+00  0.000E+00  1.05413E+03  6.320E-01  1.363E+01  6.815E-01  1.211E+00
   1    8    7     5     3    7.1676E+00  1.4540E+00   5.7135E+00  0.000E+00  0.000E+00  0.000E+00  1.04983E+03  5.758E-01  1.162E+01  4.066E-01  1.192E+00
   1    8    6     5     4    5.7135E+00  9.0952E-01   4.8040E+00  0.000E+00  0.000E+00  0.000E+00  1.04679E+03  5.363E-01  1.029E+01  2.572E-01  1.179E+00
   1    9    6     6     1    4.8040E+00  2.0361E+00   2.7679E+00  0.000E+00  0.000E+00  0.000E+00  1.04312E+03  3.934E-01  1.200E+01  6.000E-01  1.131E+00
   1   10    7     6     2    2.7679E+00  1.9507E+00   8.1721E-01  0.000E+00  0.000E+00  0.000E+00  1.03843E+03  2.512E-01  1.200E+01  6.000E-01  1.084E+00
   1   11    7     6     3    8.1721E-01  8.1721E-01   0.0000E+00  0.000E+00  0.000E+00  0.000E+00  1.03367E+03  3.528E-02  1.200E+01  6.000E-01  1.012E+00
   1   12    7     6     4    0.0000E+00  0.0000E+00   0.0000E+00  0.000E+00  0.000E+00  0.000E+00  1.02909E+03  0.000E+00  1.200E+01  6.000E-01  3.114E-01
   1   13    7     6     5    0.0000E+00 -8.0033E-01   8.0033E-01  0.000E+00  0.000E+00  0.000E+00  1.02601E+03  1.022E-01  1.200E+01  2.400E-01 -1.112E+00
   1   14    9     7     1    1.5000E+02  1.9550E+00   1.4805E+02  0.000E+00  0.000E+00  0.000E+00  1.03987E+03  2.286E+00  5.529E+01  5.592E+00  1.165E-01
   1   13    8     7     2    1.4805E+02  2.9299E+00   1.4512E+02  0.000E+00  0.000E+00  0.000E+00  1.03477E+03  2.273E+00  5.523E+01  6.144E+00  1.589E-01
   1   13    7     7     3    1.4512E+02  1.8613E+00   1.4325E+02  0.000E+00  0.000E+00  0.000E+00  1.02968E+03  2.260E+00  5.517E+01  5.579E+00  1.112E-01
   1   13    6     8     1    1.4405E+02  1.9638E-01   1.4386E+02  0.000E+00  0.000E+00  0.000E+00  1.02465E+03  2.774E+00  4.022E+01  4.098E+00  1.597E-02
   1   13    5     8     2    1.4386E+02 -2.5459E+00   1.4640E+02  0.000E+00  0.000E+00  0.000E+00  1.01841E+03  2.782E+00  4.034E+01  4.111E+00 -2.064E-01
   1   13    4     8     3    1.4640E+02 -4.2137E+00   1.5062E+02  0.000E+00  0.000E+00  0.000E+00  1.01218E+03  2.806E+00  4.069E+01  4.147E+00 -3.387E-01
   1   13    3     8     4    1.5062E+02 -4.5593E+00   1.5518E+02  0.000E+00  0.000E+00  0.000E+00  1.00596E+03  2.837E+00  4.114E+01  4.192E+00 -3.625E-01
   1   13    2     8     5    1.5518E+02 -2.1263E+00   1.5730E+02  0.000E+00  0.000E+00  0.000E+00  9.99735E+02  2.860E+00  4.147E+01  4.226E+00 -1.677E-01
   1   13    1     8     6    1.5730E+02 -6.0039E-01   1.5790E+02  0.000E+00  0.000E+00  0.000E+00  9.94745E+02  2.870E+00  4.161E+01  2.544E+00 -7.867E-02



 UBDSV3 SAVING "           GW ET" ON UNIT  61 AT TIME STEP  5, STRESS PERIOD   5
 UBDSV3 SAVING "    UZF RECHARGE" ON UNIT  61 AT TIME STEP  5, STRESS PERIOD   5
 UBDSV3 SAVING " SURFACE LEAKAGE" ON UNIT  61 AT TIME STEP  5, STRESS PERIOD   5
 UBDSV3 SAVING "       HORT+DUNN" ON UNIT  61 AT TIME STEP  5, STRESS PERIOD   5
 UBDSV3 SAVING "  STORAGE CHANGE" ON UNIT  61 AT TIME STEP  5, STRESS PERIOD   5


UNSATURATED ZONE PACKAGE VOLUMETRIC BUDGET FOR  TIME STEP     5 STRESS PERIOD    5
  ------------------------------------------------------------------------------



     CUMULATIVE VOLUMES      L**3       RATES FOR THIS TIME STEP      L**3/T
     ------------------                 ------------------------

           IN:                                      IN:
           ---                                      ---
        INFILTRATION =   890017801.6006          INFILTRATION =          42.3750

          OUT:                                     OUT:
          ----                                     ----
              UZF ET =   943208125.0554                UZF ET =          80.7297
        UZF RECHARGE =   160017648.1595          UZF RECHARGE =          16.8595

            IN - OUT =  -213207971.6144              IN - OUT =         -55.2141

          STORAGE:                                 STORAGE:
          --------                                 --------
      STORAGE CHANGE =  -213003754.7916        STORAGE CHANGE =         -55.2071

 PERCENT DISCREPANCY IS DIFFERENCE BETWEEN IN-OUT MINUS CHANGE IN STORAGE
 DIVIDED BY THE AVERAGE OF IN AND OUT TIMES 100

 PERCENT DISCREPANCY =          -0.00     PERCENT DISCREPANCY =          -0.01






1
  VOLUMETRIC BUDGET FOR ENTIRE MODEL AT END OF TIME STEP    5, STRESS PERIOD   5
  ------------------------------------------------------------------------------

     CUMULATIVE VOLUMES      L**3       RATES FOR THIS TIME STEP      L**3/T
     ------------------                 ------------------------

           IN:                                      IN:
           ---                                      ---
             STORAGE =     8433194.0000               STORAGE =          17.3871
       CONSTANT HEAD =           0.0000         CONSTANT HEAD =           0.0000
               WELLS =           0.0000                 WELLS =           0.0000
     HEAD DEP BOUNDS =     2300632.7500       HEAD DEP BOUNDS =           0.2083
      STREAM LEAKAGE =   478211744.0000        STREAM LEAKAGE =          42.0734
        UZF RECHARGE =   160017680.0000          UZF RECHARGE =          16.8595
               GW ET =           0.0000                 GW ET =           0.0000
     SURFACE LEAKAGE =           0.0000       SURFACE LEAKAGE =           0.0000

            TOTAL IN =   648963264.0000              TOTAL IN =          76.5283

          OUT:                                     OUT:
          ----                                     ----
             STORAGE =   152048544.0000               STORAGE =          13.9725
       CONSTANT HEAD =           0.0000         CONSTANT HEAD =           0.0000
               WELLS =   172829120.0000                 WELLS =          30.0000
     HEAD DEP BOUNDS =     2891252.5000       HEAD DEP BOUNDS =           0.2653
      STREAM LEAKAGE =   146383392.0000        STREAM LEAKAGE =          14.9767
        UZF RECHARGE =           0.0000          UZF RECHARGE =           0.0000
               GW ET =   174691920.0000                 GW ET =          17.3012
     SURFACE LEAKAGE =           0.0000       SURFACE LEAKAGE =           0.0000

           TOTAL OUT =   648844224.0000             TOTAL OUT =          76.5156

            IN - OUT =      119040.0000              IN - OUT =       1.2749E-02

 PERCENT DISCREPANCY =           0.02     PERCENT DISCREPANCY =           0.02






         TIME SUMMARY AT END OF TIME STEP    5 IN STRESS PERIOD    5
                    SECONDS     MINUTES      HOURS       DAYS        YEARS
                    -----------------------------------------------------------
   TIME STEP LENGTH 1.21100E+05  2018.3      33.639      1.4016     3.83743E-03
 STRESS PERIOD TIME 5.04972E+05  8416.2      140.27      5.8446     1.60016E-02
         TOTAL TIME 1.10170E+07 1.83616E+05  3060.3      127.51     0.34911    
1
 
 SOLVING FOR HEAD 
    11 ITERATIONS FOR TIME STEP   6 IN STRESS PERIOD    5

 MAXIMUM HEAD CHANGE FOR EACH ITERATION:

    HEAD CHANGE   HEAD CHANGE   HEAD CHANGE   HEAD CHANGE   HEAD CHANGE
  LAYER,ROW,COL LAYER,ROW,COL LAYER,ROW,COL LAYER,ROW,COL LAYER,ROW,COL
 ----------------------------------------------------------------------
    -0.6368E-01   -0.3400E-01   -0.1828E-01   -0.9816E-02   -0.5314E-02
  (  1,  3,  6) (  1,  3,  6) (  1,  3,  6) (  1,  3,  6) (  1,  3,  6)
    -0.2809E-02   -0.1476E-02   -0.9084E-03   -0.4479E-03   -0.2377E-03
  (  1,  3,  6) (  1,  3,  6) (  1,  3,  6) (  1,  3,  5) (  1,  3,  5)
    -0.1248E-03
  (  1,  3,  5)


 NO OUTPUT CONTROL FOR STRESS PERIOD    5   TIME STEP    6
 
 SOLVING FOR HEAD 
    12 ITERATIONS FOR TIME STEP   7 IN STRESS PERIOD    5

 MAXIMUM HEAD CHANGE FOR EACH ITERATION:

    HEAD CHANGE   HEAD CHANGE   HEAD CHANGE   HEAD CHANGE   HEAD CHANGE
  LAYER,ROW,COL LAYER,ROW,COL LAYER,ROW,COL LAYER,ROW,COL LAYER,ROW,COL
 ----------------------------------------------------------------------
    -0.7993E-01   -0.4082E-01   -0.2084E-01   -0.1080E-01   -0.5387E-02
  (  1,  3,  6) (  1,  3,  6) (  1,  3,  6) (  1,  3,  6) (  1,  3,  6)
    -0.2863E-02   -0.1555E-02   -0.8041E-03   -0.4772E-03   -0.2455E-03
  (  1,  3,  5) (  1,  3,  5) (  1,  3,  5) (  1,  3,  6) (  1,  3,  5)
    -0.2186E-03   -0.1060E-03
  (  1,  3,  5) (  1,  3,  6)


 NO OUTPUT CONTROL FOR STRESS PERIOD    5   TIME STEP    7
 
 SOLVING FOR HEAD 
    11 ITERATIONS FOR TIME STEP   8 IN STRESS PERIOD    5

 MAXIMUM HEAD CHANGE FOR EACH ITERATION:

    HEAD CHANGE   HEAD CHANGE   HEAD CHANGE   HEAD CHANGE   HEAD CHANGE
  LAYER,ROW,COL LAYER,ROW,COL LAYER,ROW,COL LAYER,ROW,COL LAYER,ROW,COL
 ----------------------------------------------------------------------
    -0.9132E-01   -0.4436E-01   -0.2157E-01   -0.1080E-01   -0.5448E-02
  (  1,  3,  6) (  1,  3,  6) (  1,  3,  6) (  1,  3,  5) (  1,  3,  5)
    -0.2871E-02   -0.1362E-02   -0.7153E-03   -0.4106E-03   -0.2620E-03
  (  1,  3,  5) (  1,  3,  5) (  1,  3,  5) (  1,  3,  5) (  1,  3,  5)
    -0.1026E-03
  (  1,  3,  7)


 NO OUTPUT CONTROL FOR STRESS PERIOD    5   TIME STEP    8
 
 SOLVING FOR HEAD 
    10 ITERATIONS FOR TIME STEP   9 IN STRESS PERIOD    5

 MAXIMUM HEAD CHANGE FOR EACH ITERATION:

    HEAD CHANGE   HEAD CHANGE   HEAD CHANGE   HEAD CHANGE   HEAD CHANGE
  LAYER,ROW,COL LAYER,ROW,COL LAYER,ROW,COL LAYER,ROW,COL LAYER,ROW,COL
 ----------------------------------------------------------------------
    -0.1018       -0.4770E-01   -0.2237E-01   -0.1054E-01   -0.5197E-02
  (  1,  3,  6) (  1,  3,  6) (  1,  3,  6) (  1,  3,  5) (  1,  3,  5)
    -0.2612E-02   -0.1258E-02   -0.5937E-03   -0.3149E-03   -0.1611E-03
  (  1,  3,  5) (  1,  3,  5) (  1,  3,  5) (  1,  3,  5) (  1,  3,  5)


 NO OUTPUT CONTROL FOR STRESS PERIOD    5   TIME STEP    9
 
 SOLVING FOR HEAD 
    10 ITERATIONS FOR TIME STEP  10 IN STRESS PERIOD    5

 MAXIMUM HEAD CHANGE FOR EACH ITERATION:

    HEAD CHANGE   HEAD CHANGE   HEAD CHANGE   HEAD CHANGE   HEAD CHANGE
  LAYER,ROW,COL LAYER,ROW,COL LAYER,ROW,COL LAYER,ROW,COL LAYER,ROW,COL
 ----------------------------------------------------------------------
    -0.1112       -0.5159E-01   -0.2128E-01   -0.9955E-02   -0.4597E-02
  (  1,  3,  6) (  1,  3,  6) (  1,  3,  5) (  1,  3,  5) (  1,  3,  5)
    -0.2201E-02   -0.9687E-03   -0.4049E-03   -0.2427E-03   -0.5306E-04
  (  1,  3,  5) (  1,  3,  5) (  1,  3,  5) (  1,  3,  5) (  1, 13,  3)


 OUTPUT CONTROL FOR STRESS PERIOD    5   TIME STEP   10
    PRINT BUDGET
    SAVE BUDGET

            WELLS   PERIOD    5   STEP  10
 WELL      1   LAYER   1   ROW     6   COL     4   RATE    -3.00000    
 WELL      2   LAYER   1   ROW     6   COL     5   RATE    -3.00000    
 WELL      3   LAYER   1   ROW     7   COL     4   RATE    -3.00000    
 WELL      4   LAYER   1   ROW     7   COL     5   RATE    -3.00000    
 WELL      5   LAYER   1   ROW     8   COL     4   RATE    -3.00000    
 WELL      6   LAYER   1   ROW     8   COL     5   RATE    -3.00000    
 WELL      7   LAYER   1   ROW     9   COL     4   RATE    -3.00000    
 WELL      8   LAYER   1   ROW     9   COL     5   RATE    -3.00000    
 WELL      9   LAYER   1   ROW    10   COL     4   RATE    -3.00000    
 WELL     10   LAYER   1   ROW    10   COL     5   RATE    -3.00000    

  HEAD DEP BOUNDS   PERIOD    5   STEP  10
 BOUNDARY      1   LAYER   1   ROW    13   COL     1   RATE   -0.266688    
 BOUNDARY      2   LAYER   1   ROW    14   COL     9   RATE    0.208807    



 STREAM LISTING     PERIOD      5   STEP       10

 LAYER ROW COL. STREAM  RCH.  FLOW INTO     FLOW TO   FLOW OUT OF   OVRLND.     DIRECT     STREAM       STREAM     STREAM     STREAM   STREAMBED  STREAMBED
                SEG.NO.  NO.  STRM. RCH.    AQUIFER    STRM. RCH.    RUNOFF     PRECIP       ET          HEAD       DEPTH      WIDTH   CONDCTNC.   GRADIENT

   1    1    1     1     1    2.5000E+01  9.9790E-01   2.4002E+01  0.000E+00  0.000E+00  0.000E+00  1.09422E+03  1.173E+00  1.296E+01  5.833E-01  5.702E-01
   1    2    2     1     2    2.4002E+01  3.0241E+00   2.0978E+01  0.000E+00  0.000E+00  0.000E+00  1.08920E+03  1.141E+00  1.255E+01  8.783E-01  1.148E+00
   1    3    3     1     3    2.0978E+01  2.9113E+00   1.8067E+01  0.000E+00  0.000E+00  0.000E+00  1.08351E+03  1.092E+00  1.186E+01  7.114E-01  1.364E+00
   1    3    4     1     4    1.8067E+01  2.4732E+00   1.5594E+01  0.000E+00  0.000E+00  0.000E+00  1.07845E+03  1.046E+00  1.101E+01  6.112E-01  1.349E+00
   1    4    5     2     1    5.5935E+00  2.6658E+00   2.9277E+00  0.000E+00  0.000E+00  0.000E+00  1.07235E+03  4.177E-01  1.200E+01  7.800E-01  1.139E+00
   1    5    6     2     2    2.9277E+00  1.9568E+00   9.7098E-01  0.000E+00  0.000E+00  0.000E+00  1.06677E+03  2.613E-01  1.200E+01  6.000E-01  1.087E+00
   1    6    6     2     3    9.7098E-01  9.7098E-01   0.0000E+00  0.000E+00  0.000E+00  0.000E+00  1.06181E+03  1.935E-02  1.200E+01  6.000E-01  1.006E+00
   1    7    6     2     4    0.0000E+00  0.0000E+00   0.0000E+00  0.000E+00  0.000E+00  0.000E+00  1.05708E+03  0.000E+00  1.200E+01  6.000E-01  1.000E+00
   1    8    6     2     5    0.0000E+00  0.0000E+00   0.0000E+00  0.000E+00  0.000E+00  0.000E+00  1.05236E+03  0.000E+00  1.200E+01  6.000E-01  1.000E+00
   1    3    5     3     1    1.0000E+01  1.9492E+00   8.0508E+00  0.000E+00  0.000E+00  0.000E+00  1.07555E+03  1.909E+00  9.636E+00  7.227E-01  1.349E+00
   1    3    6     3     2    8.0508E+00  6.8155E-01   7.3692E+00  0.000E+00  0.000E+00  0.000E+00  1.07264E+03  1.727E+00  8.909E+00  6.682E-01  5.100E-01
   1    3    7     3     3    7.3692E+00  1.3061E-01   7.2386E+00  0.000E+00  0.000E+00  0.000E+00  1.06987E+03  1.555E+00  8.218E+00  5.547E-01  1.177E-01
   1    4    8     3     4    7.2386E+00  1.5663E+00   5.6723E+00  0.000E+00  0.000E+00  0.000E+00  1.06682E+03  1.364E+00  7.455E+00  6.709E-01  1.167E+00
   1    5    8     3     5    5.6723E+00  1.5790E+00   4.0934E+00  0.000E+00  0.000E+00  0.000E+00  1.06362E+03  1.164E+00  6.655E+00  4.991E-01  1.582E+00
   1    6    8     3     6    4.0934E+00  5.5980E-01   3.5336E+00  0.000E+00  0.000E+00  0.000E+00  1.06158E+03  1.036E+00  6.145E+00  1.844E-01  1.518E+00
   1    5   10     4     1    1.0000E+01  9.0525E-01   9.0947E+00  0.000E+00  0.000E+00  0.000E+00  1.07835E+03  6.210E-01  1.000E+01  2.500E-01  1.207E+00
   1    5    9     4     2    9.0947E+00  1.7835E+00   7.3113E+00  0.000E+00  0.000E+00  0.000E+00  1.07148E+03  5.670E-01  1.000E+01  5.000E-01  1.189E+00
   1    6    8     4     3    7.3113E+00  1.2257E+00   6.0855E+00  0.000E+00  0.000E+00  0.000E+00  1.06368E+03  5.021E-01  1.000E+01  3.500E-01  1.167E+00
   1    6    8     5     1    9.6191E+00  1.2045E+00   8.4146E+00  0.000E+00  0.000E+00  0.000E+00  1.05865E+03  6.477E-01  1.422E+01  5.687E-01  7.060E-01
   1    7    7     5     2    8.4146E+00  2.2531E+00   6.1616E+00  0.000E+00  0.000E+00  0.000E+00  1.05410E+03  6.012E-01  1.251E+01  6.256E-01  1.200E+00
   1    8    7     5     3    6.1616E+00  1.3121E+00   4.8495E+00  0.000E+00  0.000E+00  0.000E+00  1.04980E+03  5.450E-01  1.057E+01  3.701E-01  1.182E+00
   1    8    6     5     4    4.8495E+00  8.1478E-01   4.0347E+00  0.000E+00  0.000E+00  0.000E+00  1.04676E+03  5.056E-01  9.297E+00  2.324E-01  1.169E+00
   1    9    6     6     1    4.0347E+00  2.0066E+00   2.0281E+00  0.000E+00  0.000E+00  0.000E+00  1.04307E+03  3.443E-01  1.200E+01  6.000E-01  1.115E+00
   1   10    7     6     2    2.0281E+00  1.9108E+00   1.1735E-01  0.000E+00  0.000E+00  0.000E+00  1.03837E+03  1.846E-01  1.200E+01  6.000E-01  1.062E+00
   1   11    7     6     3    1.1735E-01  1.1735E-01   0.0000E+00  0.000E+00  0.000E+00  0.000E+00  1.03365E+03  1.102E-02  1.200E+01  6.000E-01  1.004E+00
   1   12    7     6     4    0.0000E+00  0.0000E+00   0.0000E+00  0.000E+00  0.000E+00  0.000E+00  1.02909E+03  0.000E+00  1.200E+01  6.000E-01  3.036E-01
   1   13    7     6     5    0.0000E+00 -8.0209E-01   8.0209E-01  0.000E+00  0.000E+00  0.000E+00  1.02601E+03  1.023E-01  1.200E+01  2.400E-01 -1.114E+00
   1   14    9     7     1    1.5000E+02  2.0216E+00   1.4798E+02  0.000E+00  0.000E+00  0.000E+00  1.03987E+03  2.286E+00  5.529E+01  5.592E+00  1.205E-01
   1   13    8     7     2    1.4798E+02  2.9664E+00   1.4501E+02  0.000E+00  0.000E+00  0.000E+00  1.03477E+03  2.273E+00  5.523E+01  6.144E+00  1.609E-01
   1   13    7     7     3    1.4501E+02  1.8171E+00   1.4319E+02  0.000E+00  0.000E+00  0.000E+00  1.02968E+03  2.260E+00  5.517E+01  5.579E+00  1.086E-01
   1   13    6     8     1    1.4400E+02  1.8954E-01   1.4381E+02  0.000E+00  0.000E+00  0.000E+00  1.02465E+03  2.773E+00  4.021E+01  4.098E+00  1.542E-02
   1   13    5     8     2    1.4381E+02 -2.2688E+00   1.4608E+02  0.000E+00  0.000E+00  0.000E+00  1.01841E+03  2.781E+00  4.032E+01  4.109E+00 -1.841E-01
   1   13    4     8     3    1.4608E+02 -3.9619E+00   1.5004E+02  0.000E+00  0.000E+00  0.000E+00  1.01218E+03  2.803E+00  4.064E+01  4.142E+00 -3.188E-01
   1   13    3     8     4    1.5004E+02 -4.2635E+00   1.5430E+02  0.000E+00  0.000E+00  0.000E+00  1.00596E+03  2.832E+00  4.106E+01  4.185E+00 -3.396E-01
   1   13    2     8     5    1.5430E+02 -2.1035E+00   1.5641E+02  0.000E+00  0.000E+00  0.000E+00  9.99729E+02  2.854E+00  4.138E+01  4.217E+00 -1.663E-01
   1   13    1     8     6    1.5641E+02 -7.0917E-01   1.5711E+02  0.000E+00  0.000E+00  0.000E+00  9.94739E+02  2.864E+00  4.152E+01  2.539E+00 -9.311E-02



 UBDSV3 SAVING "           GW ET" ON UNIT  61 AT TIME STEP 10, STRESS PERIOD   5
 UBDSV3 SAVING "    UZF RECHARGE" ON UNIT  61 AT TIME STEP 10, STRESS PERIOD   5
 UBDSV3 SAVING " SURFACE LEAKAGE" ON UNIT  61 AT TIME STEP 10, STRESS PERIOD   5
 UBDSV3 SAVING "       HORT+DUNN" ON UNIT  61 AT TIME STEP 10, STRESS PERIOD   5
 UBDSV3 SAVING "  STORAGE CHANGE" ON UNIT  61 AT TIME STEP 10, STRESS PERIOD   5


UNSATURATED ZONE PACKAGE VOLUMETRIC BUDGET FOR  TIME STEP    10 STRESS PERIOD    5
  ------------------------------------------------------------------------------



     CUMULATIVE VOLUMES      L**3       RATES FOR THIS TIME STEP      L**3/T
     ------------------                 ------------------------

           IN:                                      IN:
           ---                                      ---
        INFILTRATION =   924479771.5166          INFILTRATION =          42.3750

          OUT:                                     OUT:
          ----                                     ----
              UZF ET =   997000640.3040                UZF ET =          67.5641
        UZF RECHARGE =   168564122.8996          UZF RECHARGE =           9.4571

            IN - OUT =  -241084991.6869              IN - OUT =         -34.6461

          STORAGE:                                 STORAGE:
          --------                                 --------
      STORAGE CHANGE =  -240879935.2373        STORAGE CHANGE =         -34.6451

 PERCENT DISCREPANCY IS DIFFERENCE BETWEEN IN-OUT MINUS CHANGE IN STORAGE
 DIVIDED BY THE AVERAGE OF IN AND OUT TIMES 100

 PERCENT DISCREPANCY =          -0.00     PERCENT DISCREPANCY =          -0.00






1
  VOLUMETRIC BUDGET FOR ENTIRE MODEL AT END OF TIME STEP   10, STRESS PERIOD   5
  ------------------------------------------------------------------------------

     CUMULATIVE VOLUMES      L**3       RATES FOR THIS TIME STEP      L**3/T
     ------------------                 ------------------------

           IN:                                      IN:
           ---                                      ---
             STORAGE =    25044212.0000               STORAGE =          19.1116
       CONSTANT HEAD =           0.0000         CONSTANT HEAD =           0.0000
               WELLS =           0.0000                 WELLS =           0.0000
     HEAD DEP BOUNDS =     2470326.2500       HEAD DEP BOUNDS =           0.2088
      STREAM LEAKAGE =   512361824.0000        STREAM LEAKAGE =          41.9946
        UZF RECHARGE =   168564176.0000          UZF RECHARGE =           9.4571
               GW ET =           0.0000                 GW ET =           0.0000
     SURFACE LEAKAGE =           0.0000       SURFACE LEAKAGE =           0.0000

            TOTAL IN =   708440512.0000              TOTAL IN =          70.7721

          OUT:                                     OUT:
          ----                                     ----
             STORAGE =   159648464.0000               STORAGE =           7.4270
       CONSTANT HEAD =           0.0000         CONSTANT HEAD =           0.0000
               WELLS =   197226976.0000                 WELLS =          30.0000
     HEAD DEP BOUNDS =     3107744.2500       HEAD DEP BOUNDS =           0.2667
      STREAM LEAKAGE =   158077344.0000        STREAM LEAKAGE =          14.1089
        UZF RECHARGE =           0.0000          UZF RECHARGE =           0.0000
               GW ET =   190261584.0000                 GW ET =          18.9845
     SURFACE LEAKAGE =           0.0000       SURFACE LEAKAGE =           0.0000

           TOTAL OUT =   708322112.0000             TOTAL OUT =          70.7871

            IN - OUT =      118400.0000              IN - OUT =      -1.4999E-02

 PERCENT DISCREPANCY =           0.02     PERCENT DISCREPANCY =          -0.02






         TIME SUMMARY AT END OF TIME STEP   10 IN STRESS PERIOD    5
                    SECONDS     MINUTES      HOURS       DAYS        YEARS
                    -----------------------------------------------------------
   TIME STEP LENGTH 1.95033E+05  3250.6      54.176      2.2573     6.18023E-03
 STRESS PERIOD TIME 1.31823E+06  21971.      366.18      15.257     4.17723E-02
         TOTAL TIME 1.18302E+07 1.97171E+05  3286.2      136.92     0.37488    
1
 
 SOLVING FOR HEAD 
     7 ITERATIONS FOR TIME STEP  11 IN STRESS PERIOD    5

 MAXIMUM HEAD CHANGE FOR EACH ITERATION:

    HEAD CHANGE   HEAD CHANGE   HEAD CHANGE   HEAD CHANGE   HEAD CHANGE
  LAYER,ROW,COL LAYER,ROW,COL LAYER,ROW,COL LAYER,ROW,COL LAYER,ROW,COL
 ----------------------------------------------------------------------
    -0.1166       -0.5119E-01   -0.2035E-01   -0.9031E-02   -0.3884E-02
  (  1,  3,  6) (  1,  3,  6) (  1,  3,  5) (  1,  3,  5) (  1,  3,  5)
    -0.7776E-03   -0.1551E-03
  (  1,  3,  5) (  1,  3,  5)


 NO OUTPUT CONTROL FOR STRESS PERIOD    5   TIME STEP   11
 
 SOLVING FOR HEAD 
     7 ITERATIONS FOR TIME STEP  12 IN STRESS PERIOD    5

 MAXIMUM HEAD CHANGE FOR EACH ITERATION:

    HEAD CHANGE   HEAD CHANGE   HEAD CHANGE   HEAD CHANGE   HEAD CHANGE
  LAYER,ROW,COL LAYER,ROW,COL LAYER,ROW,COL LAYER,ROW,COL LAYER,ROW,COL
 ----------------------------------------------------------------------
    -0.1173       -0.4975E-01   -0.1992E-01   -0.7362E-02   -0.1471E-02
  (  1,  3,  6) (  1,  3,  6) (  1,  3,  5) (  1,  3,  5) (  1,  3,  5)
    -0.2947E-03    0.7258E-04
  (  1,  3,  5) (  1,  9,  2)


 NO OUTPUT CONTROL FOR STRESS PERIOD    5   TIME STEP   12
 
 SOLVING FOR HEAD 
     7 ITERATIONS FOR TIME STEP  13 IN STRESS PERIOD    5

 MAXIMUM HEAD CHANGE FOR EACH ITERATION:

    HEAD CHANGE   HEAD CHANGE   HEAD CHANGE   HEAD CHANGE   HEAD CHANGE
  LAYER,ROW,COL LAYER,ROW,COL LAYER,ROW,COL LAYER,ROW,COL LAYER,ROW,COL
 ----------------------------------------------------------------------
    -0.1131       -0.5088E-01   -0.1851E-01   -0.8033E-02   -0.2570E-02
  (  1,  3,  6) (  1,  3,  6) (  1,  3,  5) (  1,  3,  5) (  1,  3,  5)
    -0.5150E-03   -0.1027E-03
  (  1,  3,  5) (  1,  3,  5)


 NO OUTPUT CONTROL FOR STRESS PERIOD    5   TIME STEP   13
 
 SOLVING FOR HEAD 
     8 ITERATIONS FOR TIME STEP  14 IN STRESS PERIOD    5

 MAXIMUM HEAD CHANGE FOR EACH ITERATION:

    HEAD CHANGE   HEAD CHANGE   HEAD CHANGE   HEAD CHANGE   HEAD CHANGE
  LAYER,ROW,COL LAYER,ROW,COL LAYER,ROW,COL LAYER,ROW,COL LAYER,ROW,COL
 ----------------------------------------------------------------------
    -0.1031       -0.4611E-01   -0.1818E-01   -0.6962E-02   -0.3029E-02
  (  1,  3,  6) (  1,  3,  6) (  1,  3,  6) (  1,  3,  5) (  1,  3,  5)
    -0.1276E-02   -0.5538E-03   -0.1802E-03
  (  1,  3,  5) (  1,  3,  5) (  1,  3,  5)


 NO OUTPUT CONTROL FOR STRESS PERIOD    5   TIME STEP   14
 
 SOLVING FOR HEAD 
    10 ITERATIONS FOR TIME STEP  15 IN STRESS PERIOD    5

 MAXIMUM HEAD CHANGE FOR EACH ITERATION:

    HEAD CHANGE   HEAD CHANGE   HEAD CHANGE   HEAD CHANGE   HEAD CHANGE
  LAYER,ROW,COL LAYER,ROW,COL LAYER,ROW,COL LAYER,ROW,COL LAYER,ROW,COL
 ----------------------------------------------------------------------
    -0.8646E-01   -0.3851E-01   -0.1702E-01   -0.7582E-02   -0.3355E-02
  (  1,  3,  6) (  1,  3,  6) (  1,  3,  6) (  1,  3,  6) (  1,  3,  6)
    -0.1420E-02   -0.6177E-03   -0.2900E-03   -0.2286E-03   -0.9022E-04
  (  1,  3,  6) (  1,  3,  6) (  1,  3,  6) (  1,  3,  6) (  1,  3,  5)


 OUTPUT CONTROL FOR STRESS PERIOD    5   TIME STEP   15
    PRINT BUDGET
    SAVE BUDGET

            WELLS   PERIOD    5   STEP  15
 WELL      1   LAYER   1   ROW     6   COL     4   RATE    -3.00000    
 WELL      2   LAYER   1   ROW     6   COL     5   RATE    -3.00000    
 WELL      3   LAYER   1   ROW     7   COL     4   RATE    -3.00000    
 WELL      4   LAYER   1   ROW     7   COL     5   RATE    -3.00000    
 WELL      5   LAYER   1   ROW     8   COL     4   RATE    -3.00000    
 WELL      6   LAYER   1   ROW     8   COL     5   RATE    -3.00000    
 WELL      7   LAYER   1   ROW     9   COL     4   RATE    -3.00000    
 WELL      8   LAYER   1   ROW     9   COL     5   RATE    -3.00000    
 WELL      9   LAYER   1   ROW    10   COL     4   RATE    -3.00000    
 WELL     10   LAYER   1   ROW    10   COL     5   RATE    -3.00000    

  HEAD DEP BOUNDS   PERIOD    5   STEP  15
 BOUNDARY      1   LAYER   1   ROW    13   COL     1   RATE   -0.266444    
 BOUNDARY      2   LAYER   1   ROW    14   COL     9   RATE    0.209005    



 STREAM LISTING     PERIOD      5   STEP       15

 LAYER ROW COL. STREAM  RCH.  FLOW INTO     FLOW TO   FLOW OUT OF   OVRLND.     DIRECT     STREAM       STREAM     STREAM     STREAM   STREAMBED  STREAMBED
                SEG.NO.  NO.  STRM. RCH.    AQUIFER    STRM. RCH.    RUNOFF     PRECIP       ET          HEAD       DEPTH      WIDTH   CONDCTNC.   GRADIENT

   1    1    1     1     1    2.5000E+01  1.0123E+00   2.3988E+01  0.000E+00  0.000E+00  0.000E+00  1.09422E+03  1.173E+00  1.296E+01  5.833E-01  5.785E-01
   1    2    2     1     2    2.3988E+01  3.0448E+00   2.0943E+01  0.000E+00  0.000E+00  0.000E+00  1.08920E+03  1.141E+00  1.254E+01  8.780E-01  1.156E+00
   1    3    3     1     3    2.0943E+01  2.9084E+00   1.8035E+01  0.000E+00  0.000E+00  0.000E+00  1.08351E+03  1.092E+00  1.185E+01  7.108E-01  1.364E+00
   1    3    4     1     4    1.8035E+01  2.4706E+00   1.5564E+01  0.000E+00  0.000E+00  0.000E+00  1.07845E+03  1.046E+00  1.100E+01  6.107E-01  1.349E+00
   1    4    5     2     1    5.5639E+00  2.6645E+00   2.8995E+00  0.000E+00  0.000E+00  0.000E+00  1.07235E+03  4.160E-01  1.200E+01  7.800E-01  1.139E+00
   1    5    6     2     2    2.8995E+00  1.9554E+00   9.4406E-01  0.000E+00  0.000E+00  0.000E+00  1.06677E+03  2.590E-01  1.200E+01  6.000E-01  1.086E+00
   1    6    6     2     3    9.4406E-01  9.4406E-01   0.0000E+00  0.000E+00  0.000E+00  0.000E+00  1.06181E+03  1.902E-02  1.200E+01  6.000E-01  1.006E+00
   1    7    6     2     4    0.0000E+00  0.0000E+00   0.0000E+00  0.000E+00  0.000E+00  0.000E+00  1.05708E+03  0.000E+00  1.200E+01  6.000E-01  1.000E+00
   1    8    6     2     5    0.0000E+00  0.0000E+00   0.0000E+00  0.000E+00  0.000E+00  0.000E+00  1.05236E+03  0.000E+00  1.200E+01  6.000E-01  1.000E+00
   1    3    5     3     1    1.0000E+01  2.5317E+00   7.4683E+00  0.000E+00  0.000E+00  0.000E+00  1.07555E+03  1.909E+00  9.636E+00  7.227E-01  1.751E+00
   1    3    6     3     2    7.4683E+00  1.2597E+00   6.2087E+00  0.000E+00  0.000E+00  0.000E+00  1.07264E+03  1.727E+00  8.909E+00  6.682E-01  9.426E-01
   1    3    7     3     3    6.2087E+00  4.5364E-01   5.7550E+00  0.000E+00  0.000E+00  0.000E+00  1.06987E+03  1.555E+00  8.218E+00  5.547E-01  4.089E-01
   1    4    8     3     4    5.7550E+00  1.5468E+00   4.2082E+00  0.000E+00  0.000E+00  0.000E+00  1.06682E+03  1.364E+00  7.455E+00  6.709E-01  1.153E+00
   1    5    8     3     5    4.2082E+00  1.5790E+00   2.6292E+00  0.000E+00  0.000E+00  0.000E+00  1.06362E+03  1.164E+00  6.655E+00  4.991E-01  1.582E+00
   1    6    8     3     6    2.6292E+00  5.5980E-01   2.0694E+00  0.000E+00  0.000E+00  0.000E+00  1.06158E+03  1.036E+00  6.145E+00  1.844E-01  1.518E+00
   1    5   10     4     1    1.0000E+01  9.0525E-01   9.0947E+00  0.000E+00  0.000E+00  0.000E+00  1.07835E+03  6.210E-01  1.000E+01  2.500E-01  1.207E+00
   1    5    9     4     2    9.0947E+00  1.7835E+00   7.3113E+00  0.000E+00  0.000E+00  0.000E+00  1.07148E+03  5.670E-01  1.000E+01  5.000E-01  1.189E+00
   1    6    8     4     3    7.3113E+00  1.2257E+00   6.0855E+00  0.000E+00  0.000E+00  0.000E+00  1.06368E+03  5.021E-01  1.000E+01  3.500E-01  1.167E+00
   1    6    8     5     1    8.1550E+00  1.0707E+00   7.0843E+00  0.000E+00  0.000E+00  0.000E+00  1.05861E+03  6.107E-01  1.285E+01  5.141E-01  6.943E-01
   1    7    7     5     2    7.0843E+00  2.0010E+00   5.0833E+00  0.000E+00  0.000E+00  0.000E+00  1.05406E+03  5.644E-01  1.123E+01  5.614E-01  1.188E+00
   1    8    7     5     3    5.0833E+00  1.1516E+00   3.9316E+00  0.000E+00  0.000E+00  0.000E+00  1.04976E+03  5.082E-01  9.379E+00  3.283E-01  1.169E+00
   1    8    6     5     4    3.9316E+00  7.0804E-01   3.2236E+00  0.000E+00  0.000E+00  0.000E+00  1.04672E+03  4.687E-01  8.165E+00  2.041E-01  1.156E+00
   1    9    6     6     1    3.2236E+00  1.9722E+00   1.2514E+00  0.000E+00  0.000E+00  0.000E+00  1.04301E+03  2.870E-01  1.200E+01  6.000E-01  1.096E+00
   1   10    7     6     2    1.2514E+00  1.2514E+00   0.0000E+00  0.000E+00  0.000E+00  0.000E+00  1.03823E+03  4.557E-02  1.200E+01  6.000E-01  1.015E+00
   1   11    7     6     3    0.0000E+00  0.0000E+00   0.0000E+00  0.000E+00  0.000E+00  0.000E+00  1.03364E+03  0.000E+00  1.200E+01  6.000E-01  1.000E+00
   1   12    7     6     4    0.0000E+00  0.0000E+00   0.0000E+00  0.000E+00  0.000E+00  0.000E+00  1.02909E+03  0.000E+00  1.200E+01  6.000E-01  2.959E-01
   1   13    7     6     5    0.0000E+00 -7.8984E-01   7.8984E-01  0.000E+00  0.000E+00  0.000E+00  1.02601E+03  1.014E-01  1.200E+01  2.400E-01 -1.097E+00
   1   14    9     7     1    1.5000E+02  2.0502E+00   1.4795E+02  0.000E+00  0.000E+00  0.000E+00  1.03987E+03  2.286E+00  5.529E+01  5.592E+00  1.222E-01
   1   13    8     7     2    1.4795E+02  2.9875E+00   1.4496E+02  0.000E+00  0.000E+00  0.000E+00  1.03477E+03  2.272E+00  5.523E+01  6.144E+00  1.621E-01
   1   13    7     7     3    1.4496E+02  2.1012E+00   1.4286E+02  0.000E+00  0.000E+00  0.000E+00  1.02968E+03  2.259E+00  5.516E+01  5.579E+00  1.255E-01
   1   13    6     8     1    1.4365E+02  4.7096E-01   1.4318E+02  0.000E+00  0.000E+00  0.000E+00  1.02464E+03  2.770E+00  4.016E+01  4.093E+00  3.836E-02
   1   13    5     8     2    1.4318E+02 -2.1306E+00   1.4531E+02  0.000E+00  0.000E+00  0.000E+00  1.01840E+03  2.776E+00  4.025E+01  4.102E+00 -1.732E-01
   1   13    4     8     3    1.4531E+02 -3.8416E+00   1.4915E+02  0.000E+00  0.000E+00  0.000E+00  1.01217E+03  2.797E+00  4.056E+01  4.133E+00 -3.098E-01
   1   13    3     8     4    1.4915E+02 -4.1282E+00   1.5328E+02  0.000E+00  0.000E+00  0.000E+00  1.00595E+03  2.825E+00  4.097E+01  4.175E+00 -3.296E-01
   1   13    2     8     5    1.5328E+02 -2.0867E+00   1.5537E+02  0.000E+00  0.000E+00  0.000E+00  9.99722E+02  2.847E+00  4.128E+01  4.207E+00 -1.653E-01
   1   13    1     8     6    1.5537E+02 -7.0918E-01   1.5608E+02  0.000E+00  0.000E+00  0.000E+00  9.94732E+02  2.857E+00  4.142E+01  2.533E+00 -9.334E-02



 UBDSV3 SAVING "           GW ET" ON UNIT  61 AT TIME STEP 15, STRESS PERIOD   5
 UBDSV3 SAVING "    UZF RECHARGE" ON UNIT  61 AT TIME STEP 15, STRESS PERIOD   5
 UBDSV3 SAVING " SURFACE LEAKAGE" ON UNIT  61 AT TIME STEP 15, STRESS PERIOD   5
 UBDSV3 SAVING "       HORT+DUNN" ON UNIT  61 AT TIME STEP 15, STRESS PERIOD   5
 UBDSV3 SAVING "  STORAGE CHANGE" ON UNIT  61 AT TIME STEP 15, STRESS PERIOD   5


UNSATURATED ZONE PACKAGE VOLUMETRIC BUDGET FOR  TIME STEP    15 STRESS PERIOD    5
  ------------------------------------------------------------------------------



     CUMULATIVE VOLUMES      L**3       RATES FOR THIS TIME STEP      L**3/T
     ------------------                 ------------------------

           IN:                                      IN:
           ---                                      ---
        INFILTRATION =   979981122.0635          INFILTRATION =          42.3750

          OUT:                                     OUT:
          ----                                     ----
              UZF ET =  1085712377.7297                UZF ET =          61.0507
        UZF RECHARGE =   179416512.0148          UZF RECHARGE =           7.9772

            IN - OUT =  -285147767.6810              IN - OUT =         -26.6529

          STORAGE:                                 STORAGE:
          --------                                 --------
      STORAGE CHANGE =  -284941519.0451        STORAGE CHANGE =         -26.6525

 PERCENT DISCREPANCY IS DIFFERENCE BETWEEN IN-OUT MINUS CHANGE IN STORAGE
 DIVIDED BY THE AVERAGE OF IN AND OUT TIMES 100

 PERCENT DISCREPANCY =          -0.00     PERCENT DISCREPANCY =          -0.00






1
  VOLUMETRIC BUDGET FOR ENTIRE MODEL AT END OF TIME STEP   15, STRESS PERIOD   5
  ------------------------------------------------------------------------------

     CUMULATIVE VOLUMES      L**3       RATES FOR THIS TIME STEP      L**3/T
     ------------------                 ------------------------

           IN:                                      IN:
           ---                                      ---
             STORAGE =    46460216.0000               STORAGE =          14.8214
       CONSTANT HEAD =           0.0000         CONSTANT HEAD =           0.0000
               WELLS =           0.0000                 WELLS =           0.0000
     HEAD DEP BOUNDS =     2744007.5000       HEAD DEP BOUNDS =           0.2090
      STREAM LEAKAGE =   567844608.0000        STREAM LEAKAGE =          42.6099
        UZF RECHARGE =   179416560.0000          UZF RECHARGE =           7.9772
               GW ET =           0.0000                 GW ET =           0.0000
     SURFACE LEAKAGE =           0.0000       SURFACE LEAKAGE =           0.0000

            TOTAL IN =   796465408.0000              TOTAL IN =          65.6175

          OUT:                                     OUT:
          ----                                     ----
             STORAGE =   165509056.0000               STORAGE =           3.2558
       CONSTANT HEAD =           0.0000         CONSTANT HEAD =           0.0000
               WELLS =   236519984.0000                 WELLS =          30.0000
     HEAD DEP BOUNDS =     3457171.0000       HEAD DEP BOUNDS =           0.2664
      STREAM LEAKAGE =   176189824.0000        STREAM LEAKAGE =          13.6860
        UZF RECHARGE =           0.0000          UZF RECHARGE =           0.0000
               GW ET =   214677616.0000                 GW ET =          18.4356
     SURFACE LEAKAGE =           0.0000       SURFACE LEAKAGE =           0.0000

           TOTAL OUT =   796353664.0000             TOTAL OUT =          65.6439

            IN - OUT =      111744.0000              IN - OUT =      -2.6360E-02

 PERCENT DISCREPANCY =           0.01     PERCENT DISCREPANCY =          -0.04






         TIME SUMMARY AT END OF TIME STEP   15 IN STRESS PERIOD    5
                    SECONDS     MINUTES      HOURS       DAYS        YEARS
                    -----------------------------------------------------------
   TIME STEP LENGTH 3.14103E+05  5235.0      87.251      3.6354     9.95332E-03
 STRESS PERIOD TIME 2.62800E+06  43800.      730.00      30.417     8.32763E-02
         TOTAL TIME 1.31400E+07 2.19000E+05  3650.0      152.08     0.41638    
1
1
                            STRESS PERIOD NO.    6, LENGTH =   2628000.    
                            -----------------------------------------------

                              NUMBER OF TIME STEPS =    15

                               MULTIPLIER FOR DELT =     1.100

                            INITIAL TIME STEP SIZE =   82713.07    

      0 WELLS

 REUSING NON-PARAMETER GHB CELLS FROM LAST STRESS PERIOD

      2 GHB CELLS

 REUSING STREAM SEGMENT DATA FROM LAST STRESS PERIOD



            AREAL INFILTRATION RATE
 READING ON UNIT   19 WITH FORMAT: (10F4.0)            

            1           2           3           4           5           6           7           8           9          10
 ........................................................................................................................
   1   1.0000E-08  2.0000E-08   0.000       0.000       0.000       0.000       0.000       0.000       0.000       0.000    
   2   2.0000E-08  1.0000E-08  2.0000E-08   0.000       0.000      8.0000E-08  8.0000E-08  5.0000E-08   0.000       0.000    
   3    0.000      5.0000E-08  1.0000E-08  1.0000E-08  8.0000E-08  8.0000E-08  5.0000E-08  5.0000E-08   0.000       0.000    
   4   8.0000E-08  5.0000E-08  1.0000E-08  1.0000E-08  1.0000E-08  1.0000E-08  1.0000E-08  1.0000E-08  2.0000E-08   0.000    
   5   8.0000E-08  5.0000E-08  1.0000E-08  1.0000E-08  1.0000E-08  1.0000E-08  1.0000E-08  1.0000E-08  1.0000E-08  1.0000E-08
   6   8.0000E-08  5.0000E-08  5.0000E-08  2.0000E-08  2.0000E-08  1.0000E-08  1.0000E-08  1.0000E-08  1.0000E-08  5.0000E-08
   7   8.0000E-08  5.0000E-08  5.0000E-08  2.0000E-08  2.0000E-08  1.0000E-08  1.0000E-08  2.0000E-08  2.0000E-08   0.000    
   8    0.000      5.0000E-08  5.0000E-08  2.0000E-08  2.0000E-08  1.0000E-08  1.0000E-08  2.0000E-08  5.0000E-08   0.000    
   9    0.000      5.0000E-08  5.0000E-08  2.0000E-08  2.0000E-08  1.0000E-08  1.0000E-08  2.0000E-08  5.0000E-08   0.000    
  10    0.000      5.0000E-08  5.0000E-08  2.0000E-08  2.0000E-08  1.0000E-08  1.0000E-08  2.0000E-08  5.0000E-08  8.0000E-08
  11    0.000      1.0000E-08  1.0000E-08  1.0000E-08  1.0000E-08  1.0000E-08  1.0000E-08  2.0000E-08  5.0000E-08   0.000    
  12   1.0000E-08  1.0000E-08  1.0000E-08  1.0000E-08  1.0000E-08  1.0000E-08  1.0000E-08  1.0000E-08  2.0000E-08   0.000    
  13   1.0000E-08  1.0000E-08  2.0000E-08  2.0000E-08  2.0000E-08  2.0000E-08  2.0000E-08  1.0000E-08  1.0000E-08   0.000    
  14    0.000      2.0000E-08  5.0000E-08  5.0000E-08  5.0000E-08  5.0000E-08  5.0000E-08  2.0000E-08  1.0000E-08   0.000    
  15    0.000       0.000      8.0000E-08  8.0000E-08  8.0000E-08  8.0000E-08   0.000       0.000       0.000       0.000    

USING ET RATE FROM PREVIOUS STRESS PERIOD. CURRENT PERIOD IS:       6

 USING ET EXTINCTION DEPTH FROM PREVIOUS STRESS PERIOD. CURRENT PERIOD IS:       6

 USING EXTINCTION WATER CONTENT FROM PREVIOUS STRESS PERIOD. CURRENT PERIOD IS:       6
 
 SOLVING FOR HEAD 

     8 ITERATIONS FOR TIME STEP   1 IN STRESS PERIOD    6

 MAXIMUM HEAD CHANGE FOR EACH ITERATION:

    HEAD CHANGE   HEAD CHANGE   HEAD CHANGE   HEAD CHANGE   HEAD CHANGE
  LAYER,ROW,COL LAYER,ROW,COL LAYER,ROW,COL LAYER,ROW,COL LAYER,ROW,COL
 ----------------------------------------------------------------------
     0.2992E-01   -0.8547E-02   -0.3900E-02   -0.1902E-02   -0.8660E-03
  (  1,  6,  5) (  1,  3,  6) (  1,  3,  6) (  1,  3,  6) (  1,  3,  6)
    -0.3679E-03   -0.2207E-03   -0.1223E-03
  (  1,  3,  6) (  1,  3,  6) (  1,  3,  5)


 NO OUTPUT CONTROL FOR STRESS PERIOD    6   TIME STEP    1
 
 SOLVING FOR HEAD 
     7 ITERATIONS FOR TIME STEP   2 IN STRESS PERIOD    6

 MAXIMUM HEAD CHANGE FOR EACH ITERATION:

    HEAD CHANGE   HEAD CHANGE   HEAD CHANGE   HEAD CHANGE   HEAD CHANGE
  LAYER,ROW,COL LAYER,ROW,COL LAYER,ROW,COL LAYER,ROW,COL LAYER,ROW,COL
 ----------------------------------------------------------------------
     0.3176E-01   -0.8886E-02   -0.4120E-02   -0.1888E-02   -0.9120E-03
  (  1,  6,  5) (  1,  3,  6) (  1,  3,  6) (  1,  3,  6) (  1,  3,  6)
    -0.4481E-03   -0.1965E-03
  (  1,  3,  6) (  1,  3,  6)


 NO OUTPUT CONTROL FOR STRESS PERIOD    6   TIME STEP    2
 
 SOLVING FOR HEAD 
     7 ITERATIONS FOR TIME STEP   3 IN STRESS PERIOD    6

 MAXIMUM HEAD CHANGE FOR EACH ITERATION:

    HEAD CHANGE   HEAD CHANGE   HEAD CHANGE   HEAD CHANGE   HEAD CHANGE
  LAYER,ROW,COL LAYER,ROW,COL LAYER,ROW,COL LAYER,ROW,COL LAYER,ROW,COL
 ----------------------------------------------------------------------
     0.3369E-01   -0.9216E-02   -0.4287E-02   -0.2023E-02   -0.9280E-03
  (  1,  6,  5) (  1,  3,  6) (  1,  3,  6) (  1,  3,  6) (  1,  3,  6)
    -0.3574E-03   -0.1887E-03
  (  1,  3,  6) (  1,  3,  6)


 NO OUTPUT CONTROL FOR STRESS PERIOD    6   TIME STEP    3
 
 SOLVING FOR HEAD 
     7 ITERATIONS FOR TIME STEP   4 IN STRESS PERIOD    6

 MAXIMUM HEAD CHANGE FOR EACH ITERATION:

    HEAD CHANGE   HEAD CHANGE   HEAD CHANGE   HEAD CHANGE   HEAD CHANGE
  LAYER,ROW,COL LAYER,ROW,COL LAYER,ROW,COL LAYER,ROW,COL LAYER,ROW,COL
 ----------------------------------------------------------------------
     0.3560E-01   -0.9501E-02   -0.4378E-02   -0.2086E-02   -0.9249E-03
  (  1,  6,  5) (  1,  3,  6) (  1,  3,  6) (  1,  3,  6) (  1,  3,  6)
    -0.4384E-03   -0.1979E-03
  (  1,  3,  6) (  1,  3,  5)


 NO OUTPUT CONTROL FOR STRESS PERIOD    6   TIME STEP    4
 
 SOLVING FOR HEAD 
     7 ITERATIONS FOR TIME STEP   5 IN STRESS PERIOD    6

 MAXIMUM HEAD CHANGE FOR EACH ITERATION:

    HEAD CHANGE   HEAD CHANGE   HEAD CHANGE   HEAD CHANGE   HEAD CHANGE
  LAYER,ROW,COL LAYER,ROW,COL LAYER,ROW,COL LAYER,ROW,COL LAYER,ROW,COL
 ----------------------------------------------------------------------
     0.3758E-01   -0.9698E-02   -0.4437E-02   -0.2139E-02   -0.9081E-03
  (  1,  6,  5) (  1,  3,  6) (  1,  3,  6) (  1,  3,  6) (  1,  3,  6)
    -0.4624E-03   -0.1580E-03
  (  1,  3,  6) (  1,  3,  6)


 OUTPUT CONTROL FOR STRESS PERIOD    6   TIME STEP    5
    PRINT BUDGET
    SAVE BUDGET

  HEAD DEP BOUNDS   PERIOD    6   STEP   5
 BOUNDARY      1   LAYER   1   ROW    13   COL     1   RATE   -0.265914    
 BOUNDARY      2   LAYER   1   ROW    14   COL     9   RATE    0.209006    



 STREAM LISTING     PERIOD      6   STEP        5

 LAYER ROW COL. STREAM  RCH.  FLOW INTO     FLOW TO   FLOW OUT OF   OVRLND.     DIRECT     STREAM       STREAM     STREAM     STREAM   STREAMBED  STREAMBED
                SEG.NO.  NO.  STRM. RCH.    AQUIFER    STRM. RCH.    RUNOFF     PRECIP       ET          HEAD       DEPTH      WIDTH   CONDCTNC.   GRADIENT

   1    1    1     1     1    2.5000E+01  1.0170E+00   2.3983E+01  0.000E+00  0.000E+00  0.000E+00  1.09422E+03  1.173E+00  1.296E+01  5.832E-01  5.812E-01
   1    2    2     1     2    2.3983E+01  3.0499E+00   2.0933E+01  0.000E+00  0.000E+00  0.000E+00  1.08920E+03  1.141E+00  1.254E+01  8.778E-01  1.158E+00
   1    3    3     1     3    2.0933E+01  2.9076E+00   1.8026E+01  0.000E+00  0.000E+00  0.000E+00  1.08351E+03  1.092E+00  1.184E+01  7.106E-01  1.364E+00
   1    3    4     1     4    1.8026E+01  2.4699E+00   1.5556E+01  0.000E+00  0.000E+00  0.000E+00  1.07845E+03  1.046E+00  1.100E+01  6.105E-01  1.349E+00
   1    4    5     2     1    5.5557E+00  2.6641E+00   2.8916E+00  0.000E+00  0.000E+00  0.000E+00  1.07235E+03  4.155E-01  1.200E+01  7.800E-01  1.138E+00
   1    5    6     2     2    2.8916E+00  1.9550E+00   9.3654E-01  0.000E+00  0.000E+00  0.000E+00  1.06677E+03  2.584E-01  1.200E+01  6.000E-01  1.086E+00
   1    6    6     2     3    9.3654E-01  9.3654E-01   0.0000E+00  0.000E+00  0.000E+00  0.000E+00  1.06181E+03  1.893E-02  1.200E+01  6.000E-01  1.006E+00
   1    7    6     2     4    0.0000E+00  0.0000E+00   0.0000E+00  0.000E+00  0.000E+00  0.000E+00  1.05708E+03  0.000E+00  1.200E+01  6.000E-01  1.000E+00
   1    8    6     2     5    0.0000E+00  0.0000E+00   0.0000E+00  0.000E+00  0.000E+00  0.000E+00  1.05236E+03  0.000E+00  1.200E+01  6.000E-01  1.000E+00
   1    3    5     3     1    1.0000E+01  2.6539E+00   7.3461E+00  0.000E+00  0.000E+00  0.000E+00  1.07555E+03  1.909E+00  9.636E+00  7.227E-01  1.836E+00
   1    3    6     3     2    7.3461E+00  1.3823E+00   5.9638E+00  0.000E+00  0.000E+00  0.000E+00  1.07264E+03  1.727E+00  8.909E+00  6.682E-01  1.034E+00
   1    3    7     3     3    5.9638E+00  5.3570E-01   5.4281E+00  0.000E+00  0.000E+00  0.000E+00  1.06987E+03  1.555E+00  8.218E+00  5.547E-01  4.828E-01
   1    4    8     3     4    5.4281E+00  1.5399E+00   3.8882E+00  0.000E+00  0.000E+00  0.000E+00  1.06682E+03  1.364E+00  7.455E+00  6.709E-01  1.148E+00
   1    5    8     3     5    3.8882E+00  1.5790E+00   2.3093E+00  0.000E+00  0.000E+00  0.000E+00  1.06362E+03  1.164E+00  6.655E+00  4.991E-01  1.582E+00
   1    6    8     3     6    2.3093E+00  5.5980E-01   1.7495E+00  0.000E+00  0.000E+00  0.000E+00  1.06158E+03  1.036E+00  6.145E+00  1.844E-01  1.518E+00
   1    5   10     4     1    1.0000E+01  9.0525E-01   9.0947E+00  0.000E+00  0.000E+00  0.000E+00  1.07835E+03  6.210E-01  1.000E+01  2.500E-01  1.207E+00
   1    5    9     4     2    9.0947E+00  1.7835E+00   7.3113E+00  0.000E+00  0.000E+00  0.000E+00  1.07148E+03  5.670E-01  1.000E+01  5.000E-01  1.189E+00
   1    6    8     4     3    7.3113E+00  1.2257E+00   6.0855E+00  0.000E+00  0.000E+00  0.000E+00  1.06368E+03  5.021E-01  1.000E+01  3.500E-01  1.167E+00
   1    6    8     5     1    7.8350E+00  1.0411E+00   6.7939E+00  0.000E+00  0.000E+00  0.000E+00  1.05860E+03  6.020E-01  1.254E+01  5.016E-01  6.918E-01
   1    7    7     5     2    6.7939E+00  1.9442E+00   4.8498E+00  0.000E+00  0.000E+00  0.000E+00  1.05406E+03  5.558E-01  1.094E+01  5.468E-01  1.185E+00
   1    8    7     5     3    4.8498E+00  1.1155E+00   3.7342E+00  0.000E+00  0.000E+00  0.000E+00  1.04975E+03  4.995E-01  9.108E+00  3.188E-01  1.167E+00
   1    8    6     5     4    3.7342E+00  6.8410E-01   3.0501E+00  0.000E+00  0.000E+00  0.000E+00  1.04671E+03  4.600E-01  7.909E+00  1.977E-01  1.153E+00
   1    9    6     6     1    3.0501E+00  1.9642E+00   1.0859E+00  0.000E+00  0.000E+00  0.000E+00  1.04300E+03  2.737E-01  1.200E+01  6.000E-01  1.091E+00
   1   10    7     6     2    1.0859E+00  1.0859E+00   0.0000E+00  0.000E+00  0.000E+00  0.000E+00  1.03822E+03  4.185E-02  1.200E+01  6.000E-01  1.014E+00
   1   11    7     6     3    0.0000E+00  0.0000E+00   0.0000E+00  0.000E+00  0.000E+00  0.000E+00  1.03364E+03  0.000E+00  1.200E+01  6.000E-01  1.000E+00
   1   12    7     6     4    0.0000E+00  0.0000E+00   0.0000E+00  0.000E+00  0.000E+00  0.000E+00  1.02909E+03  0.000E+00  1.200E+01  6.000E-01  2.942E-01
   1   13    7     6     5    0.0000E+00 -7.8562E-01   7.8562E-01  0.000E+00  0.000E+00  0.000E+00  1.02601E+03  1.010E-01  1.200E+01  2.400E-01 -1.091E+00
   1   14    9     7     1    1.5000E+02  2.0504E+00   1.4795E+02  0.000E+00  0.000E+00  0.000E+00  1.03987E+03  2.286E+00  5.529E+01  5.592E+00  1.222E-01
   1   13    8     7     2    1.4795E+02  2.9920E+00   1.4496E+02  0.000E+00  0.000E+00  0.000E+00  1.03477E+03  2.272E+00  5.523E+01  6.144E+00  1.623E-01
   1   13    7     7     3    1.4496E+02  2.1994E+00   1.4276E+02  0.000E+00  0.000E+00  0.000E+00  1.02968E+03  2.258E+00  5.516E+01  5.579E+00  1.314E-01
   1   13    6     8     1    1.4354E+02  5.5565E-01   1.4299E+02  0.000E+00  0.000E+00  0.000E+00  1.02464E+03  2.769E+00  4.015E+01  4.091E+00  4.527E-02
   1   13    5     8     2    1.4299E+02 -2.1051E+00   1.4509E+02  0.000E+00  0.000E+00  0.000E+00  1.01840E+03  2.774E+00  4.023E+01  4.099E+00 -1.712E-01
   1   13    4     8     3    1.4509E+02 -3.8256E+00   1.4892E+02  0.000E+00  0.000E+00  0.000E+00  1.01217E+03  2.796E+00  4.054E+01  4.131E+00 -3.087E-01
   1   13    3     8     4    1.4892E+02 -4.1092E+00   1.5303E+02  0.000E+00  0.000E+00  0.000E+00  1.00595E+03  2.824E+00  4.094E+01  4.172E+00 -3.283E-01
   1   13    2     8     5    1.5303E+02 -2.0834E+00   1.5511E+02  0.000E+00  0.000E+00  0.000E+00  9.99720E+02  2.845E+00  4.126E+01  4.204E+00 -1.652E-01
   1   13    1     8     6    1.5511E+02 -6.7818E-01   1.5579E+02  0.000E+00  0.000E+00  0.000E+00  9.94730E+02  2.855E+00  4.139E+01  2.531E+00 -8.932E-02



 UBDSV3 SAVING "           GW ET" ON UNIT  61 AT TIME STEP  5, STRESS PERIOD   6
 UBDSV3 SAVING "    UZF RECHARGE" ON UNIT  61 AT TIME STEP  5, STRESS PERIOD   6
 UBDSV3 SAVING " SURFACE LEAKAGE" ON UNIT  61 AT TIME STEP  5, STRESS PERIOD   6
 UBDSV3 SAVING "       HORT+DUNN" ON UNIT  61 AT TIME STEP  5, STRESS PERIOD   6
 UBDSV3 SAVING "  STORAGE CHANGE" ON UNIT  61 AT TIME STEP  5, STRESS PERIOD   6


UNSATURATED ZONE PACKAGE VOLUMETRIC BUDGET FOR  TIME STEP     5 STRESS PERIOD    6
  ------------------------------------------------------------------------------



     CUMULATIVE VOLUMES      L**3       RATES FOR THIS TIME STEP      L**3/T
     ------------------                 ------------------------

           IN:                                      IN:
           ---                                      ---
        INFILTRATION =  1022777463.8193          INFILTRATION =          84.7500

          OUT:                                     OUT:
          ----                                     ----
              UZF ET =  1117317865.4834                UZF ET =          63.2759
        UZF RECHARGE =   183565834.8287          UZF RECHARGE =           8.3694

            IN - OUT =  -278106236.4928              IN - OUT =          13.1047

          STORAGE:                                 STORAGE:
          --------                                 --------
      STORAGE CHANGE =  -277899987.0893        STORAGE CHANGE =          13.1047

 PERCENT DISCREPANCY IS DIFFERENCE BETWEEN IN-OUT MINUS CHANGE IN STORAGE
 DIVIDED BY THE AVERAGE OF IN AND OUT TIMES 100

 PERCENT DISCREPANCY =          -0.00     PERCENT DISCREPANCY =           0.00






1
  VOLUMETRIC BUDGET FOR ENTIRE MODEL AT END OF TIME STEP    5, STRESS PERIOD   6
  ------------------------------------------------------------------------------

     CUMULATIVE VOLUMES      L**3       RATES FOR THIS TIME STEP      L**3/T
     ------------------                 ------------------------

           IN:                                      IN:
           ---                                      ---
             STORAGE =    48549480.0000               STORAGE =           3.5507
       CONSTANT HEAD =           0.0000         CONSTANT HEAD =           0.0000
               WELLS =           0.0000                 WELLS =           0.0000
     HEAD DEP BOUNDS =     2849551.0000       HEAD DEP BOUNDS =           0.2090
      STREAM LEAKAGE =   589421568.0000        STREAM LEAKAGE =          42.7975
        UZF RECHARGE =   183565888.0000          UZF RECHARGE =           8.3694
               GW ET =           0.0000                 GW ET =           0.0000
     SURFACE LEAKAGE =           0.0000       SURFACE LEAKAGE =           0.0000

            TOTAL IN =   824386496.0000              TOTAL IN =          54.9266

          OUT:                                     OUT:
          ----                                     ----
             STORAGE =   177170544.0000               STORAGE =          22.7515
       CONSTANT HEAD =           0.0000         CONSTANT HEAD =           0.0000
               WELLS =   236519984.0000                 WELLS =           0.0000
     HEAD DEP BOUNDS =     3591555.0000       HEAD DEP BOUNDS =           0.2659
      STREAM LEAKAGE =   183068912.0000        STREAM LEAKAGE =          13.5871
        UZF RECHARGE =           0.0000          UZF RECHARGE =           0.0000
               GW ET =   223929824.0000                 GW ET =          18.2681
     SURFACE LEAKAGE =           0.0000       SURFACE LEAKAGE =           0.0000

           TOTAL OUT =   824280832.0000             TOTAL OUT =          54.8726

            IN - OUT =      105664.0000              IN - OUT =       5.4008E-02

 PERCENT DISCREPANCY =           0.01     PERCENT DISCREPANCY =           0.10






         TIME SUMMARY AT END OF TIME STEP    5 IN STRESS PERIOD    6
                    SECONDS     MINUTES      HOURS       DAYS        YEARS
                    -----------------------------------------------------------
   TIME STEP LENGTH 1.21100E+05  2018.3      33.639      1.4016     3.83743E-03
 STRESS PERIOD TIME 5.04972E+05  8416.2      140.27      5.8446     1.60016E-02
         TOTAL TIME 1.36450E+07 2.27416E+05  3790.3      157.93     0.43238    
1
 
 SOLVING FOR HEAD 
     8 ITERATIONS FOR TIME STEP   6 IN STRESS PERIOD    6

 MAXIMUM HEAD CHANGE FOR EACH ITERATION:

    HEAD CHANGE   HEAD CHANGE   HEAD CHANGE   HEAD CHANGE   HEAD CHANGE
  LAYER,ROW,COL LAYER,ROW,COL LAYER,ROW,COL LAYER,ROW,COL LAYER,ROW,COL
 ----------------------------------------------------------------------
     0.4032E-01   -0.9804E-02   -0.4455E-02   -0.2025E-02   -0.1013E-02
  (  1,  9,  5) (  1,  3,  6) (  1,  3,  6) (  1,  3,  6) (  1,  3,  6)
    -0.4278E-03   -0.2389E-03   -0.1232E-03
  (  1,  3,  6) (  1,  3,  6) (  1,  3,  6)


 NO OUTPUT CONTROL FOR STRESS PERIOD    6   TIME STEP    6
 
 SOLVING FOR HEAD 
     7 ITERATIONS FOR TIME STEP   7 IN STRESS PERIOD    6

 MAXIMUM HEAD CHANGE FOR EACH ITERATION:

    HEAD CHANGE   HEAD CHANGE   HEAD CHANGE   HEAD CHANGE   HEAD CHANGE
  LAYER,ROW,COL LAYER,ROW,COL LAYER,ROW,COL LAYER,ROW,COL LAYER,ROW,COL
 ----------------------------------------------------------------------
     0.4306E-01   -0.9831E-02   -0.4526E-02   -0.1969E-02   -0.9775E-03
  (  1,  9,  5) (  1,  3,  6) (  1,  3,  6) (  1,  3,  6) (  1,  3,  6)
    -0.4419E-03   -0.1703E-03
  (  1,  3,  6) (  1,  3,  6)


 NO OUTPUT CONTROL FOR STRESS PERIOD    6   TIME STEP    7
 
 SOLVING FOR HEAD 
     7 ITERATIONS FOR TIME STEP   8 IN STRESS PERIOD    6

 MAXIMUM HEAD CHANGE FOR EACH ITERATION:

    HEAD CHANGE   HEAD CHANGE   HEAD CHANGE   HEAD CHANGE   HEAD CHANGE
  LAYER,ROW,COL LAYER,ROW,COL LAYER,ROW,COL LAYER,ROW,COL LAYER,ROW,COL
 ----------------------------------------------------------------------
     0.4684E-01    0.1439E-01    0.4600E-02   -0.1972E-02   -0.9371E-03
  (  1,  7,  4) (  1,  6,  5) (  1,  6,  5) (  1,  3,  6) (  1,  3,  6)
    -0.4569E-03   -0.1816E-03
  (  1,  3,  6) (  1,  3,  6)


 NO OUTPUT CONTROL FOR STRESS PERIOD    6   TIME STEP    8
 
 SOLVING FOR HEAD 
     7 ITERATIONS FOR TIME STEP   9 IN STRESS PERIOD    6

 MAXIMUM HEAD CHANGE FOR EACH ITERATION:

    HEAD CHANGE   HEAD CHANGE   HEAD CHANGE   HEAD CHANGE   HEAD CHANGE
  LAYER,ROW,COL LAYER,ROW,COL LAYER,ROW,COL LAYER,ROW,COL LAYER,ROW,COL
 ----------------------------------------------------------------------
     0.5101E-01    0.1628E-01    0.5281E-02   -0.1960E-02   -0.8810E-03
  (  1,  7,  4) (  1,  9,  5) (  1,  9,  5) (  1,  3,  6) (  1,  3,  6)
    -0.4717E-03   -0.1553E-03
  (  1,  3,  6) (  1,  3,  5)


 NO OUTPUT CONTROL FOR STRESS PERIOD    6   TIME STEP    9
 
 SOLVING FOR HEAD 
     7 ITERATIONS FOR TIME STEP  10 IN STRESS PERIOD    6

 MAXIMUM HEAD CHANGE FOR EACH ITERATION:

    HEAD CHANGE   HEAD CHANGE   HEAD CHANGE   HEAD CHANGE   HEAD CHANGE
  LAYER,ROW,COL LAYER,ROW,COL LAYER,ROW,COL LAYER,ROW,COL LAYER,ROW,COL
 ----------------------------------------------------------------------
     0.5586E-01    0.1769E-01    0.5839E-02    0.1930E-02    0.6751E-03
  (  1,  7,  4) (  1,  7,  5) (  1,  7,  5) (  1,  7,  5) (  1,  8,  5)
    -0.2866E-03   -0.1642E-03
  (  1,  3,  5) (  1,  3,  5)


 OUTPUT CONTROL FOR STRESS PERIOD    6   TIME STEP   10
    PRINT BUDGET
    SAVE BUDGET

  HEAD DEP BOUNDS   PERIOD    6   STEP  10
 BOUNDARY      1   LAYER   1   ROW    13   COL     1   RATE   -0.265160    
 BOUNDARY      2   LAYER   1   ROW    14   COL     9   RATE    0.208999    



 STREAM LISTING     PERIOD      6   STEP       10

 LAYER ROW COL. STREAM  RCH.  FLOW INTO     FLOW TO   FLOW OUT OF   OVRLND.     DIRECT     STREAM       STREAM     STREAM     STREAM   STREAMBED  STREAMBED
                SEG.NO.  NO.  STRM. RCH.    AQUIFER    STRM. RCH.    RUNOFF     PRECIP       ET          HEAD       DEPTH      WIDTH   CONDCTNC.   GRADIENT

   1    1    1     1     1    2.5000E+01  1.0236E+00   2.3976E+01  0.000E+00  0.000E+00  0.000E+00  1.09422E+03  1.173E+00  1.296E+01  5.832E-01  5.850E-01
   1    2    2     1     2    2.3976E+01  3.0559E+00   2.0920E+01  0.000E+00  0.000E+00  0.000E+00  1.08920E+03  1.141E+00  1.254E+01  8.777E-01  1.161E+00
   1    3    3     1     3    2.0920E+01  2.9065E+00   1.8014E+01  0.000E+00  0.000E+00  0.000E+00  1.08351E+03  1.091E+00  1.184E+01  7.104E-01  1.364E+00
   1    3    4     1     4    1.8014E+01  2.4689E+00   1.5545E+01  0.000E+00  0.000E+00  0.000E+00  1.07845E+03  1.045E+00  1.100E+01  6.103E-01  1.348E+00
   1    4    5     2     1    5.5450E+00  2.6636E+00   2.8814E+00  0.000E+00  0.000E+00  0.000E+00  1.07235E+03  4.149E-01  1.200E+01  7.800E-01  1.138E+00
   1    5    6     2     2    2.8814E+00  1.9546E+00   9.2687E-01  0.000E+00  0.000E+00  0.000E+00  1.06677E+03  2.576E-01  1.200E+01  6.000E-01  1.086E+00
   1    6    6     2     3    9.2687E-01  9.2687E-01   0.0000E+00  0.000E+00  0.000E+00  0.000E+00  1.06180E+03  9.408E-03  1.200E+01  6.000E-01  1.003E+00
   1    7    6     2     4    0.0000E+00  0.0000E+00   0.0000E+00  0.000E+00  0.000E+00  0.000E+00  1.05708E+03  0.000E+00  1.200E+01  6.000E-01  1.000E+00
   1    8    6     2     5    0.0000E+00  0.0000E+00   0.0000E+00  0.000E+00  0.000E+00  0.000E+00  1.05236E+03  0.000E+00  1.200E+01  6.000E-01  1.000E+00
   1    3    5     3     1    1.0000E+01  2.7740E+00   7.2260E+00  0.000E+00  0.000E+00  0.000E+00  1.07555E+03  1.909E+00  9.636E+00  7.227E-01  1.919E+00
   1    3    6     3     2    7.2260E+00  1.4922E+00   5.7338E+00  0.000E+00  0.000E+00  0.000E+00  1.07264E+03  1.727E+00  8.909E+00  6.682E-01  1.117E+00
   1    3    7     3     3    5.7338E+00  6.3066E-01   5.1031E+00  0.000E+00  0.000E+00  0.000E+00  1.06987E+03  1.555E+00  8.218E+00  5.547E-01  5.684E-01
   1    4    8     3     4    5.1031E+00  1.5297E+00   3.5734E+00  0.000E+00  0.000E+00  0.000E+00  1.06682E+03  1.364E+00  7.455E+00  6.709E-01  1.140E+00
   1    5    8     3     5    3.5734E+00  1.5790E+00   1.9944E+00  0.000E+00  0.000E+00  0.000E+00  1.06362E+03  1.164E+00  6.655E+00  4.991E-01  1.582E+00
   1    6    8     3     6    1.9944E+00  5.5980E-01   1.4346E+00  0.000E+00  0.000E+00  0.000E+00  1.06158E+03  1.036E+00  6.145E+00  1.844E-01  1.518E+00
   1    5   10     4     1    1.0000E+01  9.0525E-01   9.0947E+00  0.000E+00  0.000E+00  0.000E+00  1.07835E+03  6.210E-01  1.000E+01  2.500E-01  1.207E+00
   1    5    9     4     2    9.0947E+00  1.7835E+00   7.3113E+00  0.000E+00  0.000E+00  0.000E+00  1.07148E+03  5.670E-01  1.000E+01  5.000E-01  1.189E+00
   1    6    8     4     3    7.3113E+00  1.2257E+00   6.0855E+00  0.000E+00  0.000E+00  0.000E+00  1.06368E+03  5.021E-01  1.000E+01  3.500E-01  1.167E+00
   1    6    8     5     1    7.5202E+00  1.0112E+00   6.5090E+00  0.000E+00  0.000E+00  0.000E+00  1.05859E+03  5.932E-01  1.223E+01  4.892E-01  6.891E-01
   1    7    7     5     2    6.5090E+00  1.8876E+00   4.6213E+00  0.000E+00  0.000E+00  0.000E+00  1.05405E+03  5.471E-01  1.064E+01  5.322E-01  1.182E+00
   1    8    7     5     3    4.6213E+00  1.0797E+00   3.5417E+00  0.000E+00  0.000E+00  0.000E+00  1.04974E+03  4.908E-01  8.837E+00  3.093E-01  1.164E+00
   1    8    6     5     4    3.5417E+00  6.6032E-01   2.8813E+00  0.000E+00  0.000E+00  0.000E+00  1.04670E+03  4.513E-01  7.653E+00  1.913E-01  1.150E+00
   1    9    6     6     1    2.8813E+00  1.9563E+00   9.2509E-01  0.000E+00  0.000E+00  0.000E+00  1.04299E+03  2.604E-01  1.200E+01  6.000E-01  1.087E+00
   1   10    7     6     2    9.2509E-01  9.2509E-01   0.0000E+00  0.000E+00  0.000E+00  0.000E+00  1.03819E+03  9.503E-03  1.200E+01  6.000E-01  1.003E+00
   1   11    7     6     3    0.0000E+00  0.0000E+00   0.0000E+00  0.000E+00  0.000E+00  0.000E+00  1.03364E+03  0.000E+00  1.200E+01  6.000E-01  1.000E+00
   1   12    7     6     4    0.0000E+00  0.0000E+00   0.0000E+00  0.000E+00  0.000E+00  0.000E+00  1.02909E+03  0.000E+00  1.200E+01  6.000E-01  2.924E-01
   1   13    7     6     5    0.0000E+00 -7.8162E-01   7.8162E-01  0.000E+00  0.000E+00  0.000E+00  1.02601E+03  1.007E-01  1.200E+01  2.400E-01 -1.086E+00
   1   14    9     7     1    1.5000E+02  2.0494E+00   1.4795E+02  0.000E+00  0.000E+00  0.000E+00  1.03987E+03  2.286E+00  5.529E+01  5.592E+00  1.222E-01
   1   13    8     7     2    1.4795E+02  2.9968E+00   1.4495E+02  0.000E+00  0.000E+00  0.000E+00  1.03477E+03  2.272E+00  5.523E+01  6.144E+00  1.626E-01
   1   13    7     7     3    1.4495E+02  2.2927E+00   1.4266E+02  0.000E+00  0.000E+00  0.000E+00  1.02968E+03  2.258E+00  5.516E+01  5.578E+00  1.370E-01
   1   13    6     8     1    1.4344E+02  6.3532E-01   1.4281E+02  0.000E+00  0.000E+00  0.000E+00  1.02464E+03  2.768E+00  4.013E+01  4.090E+00  5.178E-02
   1   13    5     8     2    1.4281E+02 -2.1827E+00   1.4499E+02  0.000E+00  0.000E+00  0.000E+00  1.01840E+03  2.773E+00  4.021E+01  4.098E+00 -1.776E-01
   1   13    4     8     3    1.4499E+02 -3.9332E+00   1.4892E+02  0.000E+00  0.000E+00  0.000E+00  1.01217E+03  2.795E+00  4.053E+01  4.130E+00 -3.174E-01
   1   13    3     8     4    1.4892E+02 -4.2033E+00   1.5313E+02  0.000E+00  0.000E+00  0.000E+00  1.00595E+03  2.824E+00  4.095E+01  4.173E+00 -3.358E-01
   1   13    2     8     5    1.5313E+02 -2.0756E+00   1.5520E+02  0.000E+00  0.000E+00  0.000E+00  9.99721E+02  2.846E+00  4.127E+01  4.205E+00 -1.645E-01
   1   13    1     8     6    1.5520E+02 -6.2690E-01   1.5583E+02  0.000E+00  0.000E+00  0.000E+00  9.94730E+02  2.855E+00  4.140E+01  2.531E+00 -8.255E-02



 UBDSV3 SAVING "           GW ET" ON UNIT  61 AT TIME STEP 10, STRESS PERIOD   6
 UBDSV3 SAVING "    UZF RECHARGE" ON UNIT  61 AT TIME STEP 10, STRESS PERIOD   6
 UBDSV3 SAVING " SURFACE LEAKAGE" ON UNIT  61 AT TIME STEP 10, STRESS PERIOD   6
 UBDSV3 SAVING "       HORT+DUNN" ON UNIT  61 AT TIME STEP 10, STRESS PERIOD   6
 UBDSV3 SAVING "  STORAGE CHANGE" ON UNIT  61 AT TIME STEP 10, STRESS PERIOD   6


UNSATURATED ZONE PACKAGE VOLUMETRIC BUDGET FOR  TIME STEP    10 STRESS PERIOD    6
  ------------------------------------------------------------------------------



     CUMULATIVE VOLUMES      L**3       RATES FOR THIS TIME STEP      L**3/T
     ------------------                 ------------------------

           IN:                                      IN:
           ---                                      ---
        INFILTRATION =  1091701403.6514          INFILTRATION =          84.7500

          OUT:                                     OUT:
          ----                                     ----
              UZF ET =  1169864696.7690                UZF ET =          65.3729
        UZF RECHARGE =   192205505.4545          UZF RECHARGE =          12.9963

            IN - OUT =  -270368798.5722              IN - OUT =           6.3808

          STORAGE:                                 STORAGE:
          --------                                 --------
      STORAGE CHANGE =  -270194452.0711        STORAGE CHANGE =           6.3047

 PERCENT DISCREPANCY IS DIFFERENCE BETWEEN IN-OUT MINUS CHANGE IN STORAGE
 DIVIDED BY THE AVERAGE OF IN AND OUT TIMES 100

 PERCENT DISCREPANCY =          -0.00     PERCENT DISCREPANCY =           0.09






1
  VOLUMETRIC BUDGET FOR ENTIRE MODEL AT END OF TIME STEP   10, STRESS PERIOD   6
  ------------------------------------------------------------------------------

     CUMULATIVE VOLUMES      L**3       RATES FOR THIS TIME STEP      L**3/T
     ------------------                 ------------------------

           IN:                                      IN:
           ---                                      ---
             STORAGE =    50672912.0000               STORAGE =           1.8386
       CONSTANT HEAD =           0.0000         CONSTANT HEAD =           0.0000
               WELLS =           0.0000                 WELLS =           0.0000
     HEAD DEP BOUNDS =     3019524.7500       HEAD DEP BOUNDS =           0.2090
      STREAM LEAKAGE =   624321024.0000        STREAM LEAKAGE =          42.9742
        UZF RECHARGE =   192205568.0000          UZF RECHARGE =          12.9963
               GW ET =           0.0000                 GW ET =           0.0000
     SURFACE LEAKAGE =           0.0000       SURFACE LEAKAGE =           0.0000

            TOTAL IN =   870219008.0000              TOTAL IN =          58.0181

          OUT:                                     OUT:
          ----                                     ----
             STORAGE =   196854192.0000               STORAGE =          25.8032
       CONSTANT HEAD =           0.0000         CONSTANT HEAD =           0.0000
               WELLS =   236519984.0000                 WELLS =           0.0000
     HEAD DEP BOUNDS =     3807430.7500       HEAD DEP BOUNDS =           0.2652
      STREAM LEAKAGE =   194218272.0000        STREAM LEAKAGE =          13.8033
        UZF RECHARGE =           0.0000          UZF RECHARGE =           0.0000
               GW ET =   238711600.0000                 GW ET =          18.1287
     SURFACE LEAKAGE =           0.0000       SURFACE LEAKAGE =           0.0000

           TOTAL OUT =   870111488.0000             TOTAL OUT =          58.0004

            IN - OUT =      107520.0000              IN - OUT =       1.7700E-02

 PERCENT DISCREPANCY =           0.01     PERCENT DISCREPANCY =           0.03






         TIME SUMMARY AT END OF TIME STEP   10 IN STRESS PERIOD    6
                    SECONDS     MINUTES      HOURS       DAYS        YEARS
                    -----------------------------------------------------------
   TIME STEP LENGTH 1.95033E+05  3250.6      54.176      2.2573     6.18023E-03
 STRESS PERIOD TIME 1.31823E+06  21971.      366.18      15.257     4.17723E-02
         TOTAL TIME 1.44582E+07 2.40970E+05  4016.2      167.34     0.45815    
1
 
 SOLVING FOR HEAD 
    10 ITERATIONS FOR TIME STEP  11 IN STRESS PERIOD    6

 MAXIMUM HEAD CHANGE FOR EACH ITERATION:

    HEAD CHANGE   HEAD CHANGE   HEAD CHANGE   HEAD CHANGE   HEAD CHANGE
  LAYER,ROW,COL LAYER,ROW,COL LAYER,ROW,COL LAYER,ROW,COL LAYER,ROW,COL
 ----------------------------------------------------------------------
     0.6220E-01    0.2087E-01    0.1104E-01    0.5852E-02    0.3112E-02
  (  1,  9,  4) (  1,  3,  6) (  1,  3,  6) (  1,  3,  6) (  1,  3,  6)
     0.1655E-02    0.8158E-03    0.4662E-03    0.2147E-03    0.1640E-03
  (  1,  3,  6) (  1,  3,  6) (  1,  3,  6) (  1,  3,  6) (  1,  3,  6)


 NO OUTPUT CONTROL FOR STRESS PERIOD    6   TIME STEP   11
 
 SOLVING FOR HEAD 
    10 ITERATIONS FOR TIME STEP  12 IN STRESS PERIOD    6

 MAXIMUM HEAD CHANGE FOR EACH ITERATION:

    HEAD CHANGE   HEAD CHANGE   HEAD CHANGE   HEAD CHANGE   HEAD CHANGE
  LAYER,ROW,COL LAYER,ROW,COL LAYER,ROW,COL LAYER,ROW,COL LAYER,ROW,COL
 ----------------------------------------------------------------------
     0.6711E-01    0.2548E-01    0.1321E-01    0.6908E-02    0.3607E-02
  (  1,  8,  4) (  1,  3,  5) (  1,  3,  5) (  1,  3,  5) (  1,  3,  5)
     0.1903E-02    0.9702E-03    0.5220E-03    0.2355E-03    0.1129E-03
  (  1,  3,  5) (  1,  3,  5) (  1,  3,  5) (  1,  3,  5) (  1,  3,  5)


 NO OUTPUT CONTROL FOR STRESS PERIOD    6   TIME STEP   12
 
 SOLVING FOR HEAD 
    10 ITERATIONS FOR TIME STEP  13 IN STRESS PERIOD    6

 MAXIMUM HEAD CHANGE FOR EACH ITERATION:

    HEAD CHANGE   HEAD CHANGE   HEAD CHANGE   HEAD CHANGE   HEAD CHANGE
  LAYER,ROW,COL LAYER,ROW,COL LAYER,ROW,COL LAYER,ROW,COL LAYER,ROW,COL
 ----------------------------------------------------------------------
     0.7248E-01    0.2426E-01    0.1129E-01    0.5832E-02    0.3018E-02
  (  1,  8,  4) (  1,  8,  4) (  1,  3,  5) (  1,  3,  5) (  1,  3,  5)
     0.1533E-02    0.8052E-03    0.4473E-03    0.2313E-03    0.1179E-03
  (  1,  3,  5) (  1,  3,  5) (  1,  3,  5) (  1,  3,  5) (  1,  3,  5)


 NO OUTPUT CONTROL FOR STRESS PERIOD    6   TIME STEP   13
 
 SOLVING FOR HEAD 
    10 ITERATIONS FOR TIME STEP  14 IN STRESS PERIOD    6

 MAXIMUM HEAD CHANGE FOR EACH ITERATION:

    HEAD CHANGE   HEAD CHANGE   HEAD CHANGE   HEAD CHANGE   HEAD CHANGE
  LAYER,ROW,COL LAYER,ROW,COL LAYER,ROW,COL LAYER,ROW,COL LAYER,ROW,COL
 ----------------------------------------------------------------------
     0.7788E-01    0.2605E-01    0.1036E-01    0.5336E-02    0.2693E-02
  (  1,  8,  4) (  1,  8,  4) (  1,  3,  5) (  1,  3,  5) (  1,  3,  5)
     0.1395E-02    0.7443E-03    0.3850E-03    0.2305E-03    0.1240E-03
  (  1,  3,  5) (  1,  3,  5) (  1,  3,  6) (  1,  3,  5) (  1,  3,  5)


 NO OUTPUT CONTROL FOR STRESS PERIOD    6   TIME STEP   14
 
 SOLVING FOR HEAD 
    12 ITERATIONS FOR TIME STEP  15 IN STRESS PERIOD    6

 MAXIMUM HEAD CHANGE FOR EACH ITERATION:

    HEAD CHANGE   HEAD CHANGE   HEAD CHANGE   HEAD CHANGE   HEAD CHANGE
  LAYER,ROW,COL LAYER,ROW,COL LAYER,ROW,COL LAYER,ROW,COL LAYER,ROW,COL
 ----------------------------------------------------------------------
     0.1387        0.7762E-01    0.4343E-01    0.2428E-01    0.1348E-01
  (  1,  2,  6) (  1,  2,  6) (  1,  2,  6) (  1,  2,  6) (  1,  2,  6)
     0.7441E-02    0.4103E-02    0.2273E-02    0.1229E-02    0.7300E-03
  (  1,  2,  6) (  1,  2,  6) (  1,  2,  6) (  1,  2,  6) (  1,  2,  6)
     0.4369E-03    0.1841E-03
  (  1,  2,  6) (  1,  2,  6)


 OUTPUT CONTROL FOR STRESS PERIOD    6   TIME STEP   15
    PRINT BUDGET
    PRINT HEAD FOR ALL LAYERS
    SAVE HEAD FOR ALL LAYERS
    SAVE BUDGET

  HEAD DEP BOUNDS   PERIOD    6   STEP  15
 BOUNDARY      1   LAYER   1   ROW    13   COL     1   RATE   -0.264323    
 BOUNDARY      2   LAYER   1   ROW    14   COL     9   RATE    0.208988    



 STREAM LISTING     PERIOD      6   STEP       15

 LAYER ROW COL. STREAM  RCH.  FLOW INTO     FLOW TO   FLOW OUT OF   OVRLND.     DIRECT     STREAM       STREAM     STREAM     STREAM   STREAMBED  STREAMBED
                SEG.NO.  NO.  STRM. RCH.    AQUIFER    STRM. RCH.    RUNOFF     PRECIP       ET          HEAD       DEPTH      WIDTH   CONDCTNC.   GRADIENT

   1    1    1     1     1    2.5000E+01  1.0320E+00   2.3968E+01  0.000E+00  0.000E+00  0.000E+00  1.09422E+03  1.172E+00  1.296E+01  5.832E-01  5.899E-01
   1    2    2     1     2    2.3968E+01  3.0615E+00   2.0906E+01  0.000E+00  0.000E+00  0.000E+00  1.08920E+03  1.141E+00  1.254E+01  8.775E-01  1.163E+00
   1    3    3     1     3    2.0906E+01  2.9054E+00   1.8001E+01  0.000E+00  0.000E+00  0.000E+00  1.08351E+03  1.091E+00  1.184E+01  7.101E-01  1.364E+00
   1    3    4     1     4    1.8001E+01  2.4679E+00   1.5533E+01  0.000E+00  0.000E+00  0.000E+00  1.07845E+03  1.045E+00  1.099E+01  6.101E-01  1.348E+00
   1    4    5     2     1    5.5332E+00  2.6631E+00   2.8701E+00  0.000E+00  0.000E+00  0.000E+00  1.07235E+03  4.142E-01  1.200E+01  7.800E-01  1.138E+00
   1    5    6     2     2    2.8701E+00  1.9540E+00   9.1612E-01  0.000E+00  0.000E+00  0.000E+00  1.06677E+03  2.567E-01  1.200E+01  6.000E-01  1.086E+00
   1    6    6     2     3    9.1612E-01  9.1612E-01   0.0000E+00  0.000E+00  0.000E+00  0.000E+00  1.06180E+03  9.342E-03  1.200E+01  6.000E-01  1.003E+00
   1    7    6     2     4    0.0000E+00  0.0000E+00   0.0000E+00  0.000E+00  0.000E+00  0.000E+00  1.05708E+03  0.000E+00  1.200E+01  6.000E-01  1.000E+00
   1    8    6     2     5    0.0000E+00  0.0000E+00   0.0000E+00  0.000E+00  0.000E+00  0.000E+00  1.05236E+03  0.000E+00  1.200E+01  6.000E-01  1.000E+00
   1    3    5     3     1    1.0000E+01  2.5228E+00   7.4772E+00  0.000E+00  0.000E+00  0.000E+00  1.07555E+03  1.909E+00  9.636E+00  7.227E-01  1.745E+00
   1    3    6     3     2    7.4772E+00  1.2492E+00   6.2280E+00  0.000E+00  0.000E+00  0.000E+00  1.07264E+03  1.727E+00  8.909E+00  6.682E-01  9.348E-01
   1    3    7     3     3    6.2280E+00  5.3087E-01   5.6971E+00  0.000E+00  0.000E+00  0.000E+00  1.06987E+03  1.555E+00  8.218E+00  5.547E-01  4.785E-01
   1    4    8     3     4    5.6971E+00  1.5171E+00   4.1800E+00  0.000E+00  0.000E+00  0.000E+00  1.06682E+03  1.364E+00  7.455E+00  6.709E-01  1.131E+00
   1    5    8     3     5    4.1800E+00  1.5790E+00   2.6010E+00  0.000E+00  0.000E+00  0.000E+00  1.06362E+03  1.164E+00  6.655E+00  4.991E-01  1.582E+00
   1    6    8     3     6    2.6010E+00  5.5980E-01   2.0412E+00  0.000E+00  0.000E+00  0.000E+00  1.06158E+03  1.036E+00  6.145E+00  1.844E-01  1.518E+00
   1    5   10     4     1    1.0000E+01  9.0525E-01   9.0947E+00  0.000E+00  0.000E+00  0.000E+00  1.07835E+03  6.210E-01  1.000E+01  2.500E-01  1.207E+00
   1    5    9     4     2    9.0947E+00  1.7835E+00   7.3113E+00  0.000E+00  0.000E+00  0.000E+00  1.07148E+03  5.670E-01  1.000E+01  5.000E-01  1.189E+00
   1    6    8     4     3    7.3113E+00  1.2257E+00   6.0855E+00  0.000E+00  0.000E+00  0.000E+00  1.06368E+03  5.021E-01  1.000E+01  3.500E-01  1.167E+00
   1    6    8     5     1    8.1267E+00  1.0614E+00   7.0654E+00  0.000E+00  0.000E+00  0.000E+00  1.05861E+03  6.100E-01  1.283E+01  5.131E-01  6.895E-01
   1    7    7     5     2    7.0654E+00  1.9973E+00   5.0681E+00  0.000E+00  0.000E+00  0.000E+00  1.05406E+03  5.638E-01  1.121E+01  5.604E-01  1.188E+00
   1    8    7     5     3    5.0681E+00  1.1493E+00   3.9188E+00  0.000E+00  0.000E+00  0.000E+00  1.04976E+03  5.076E-01  9.361E+00  3.276E-01  1.169E+00
   1    8    6     5     4    3.9188E+00  7.0647E-01   3.2123E+00  0.000E+00  0.000E+00  0.000E+00  1.04672E+03  4.681E-01  8.148E+00  2.037E-01  1.156E+00
   1    9    6     6     1    3.2123E+00  1.9717E+00   1.2407E+00  0.000E+00  0.000E+00  0.000E+00  1.04301E+03  2.861E-01  1.200E+01  6.000E-01  1.095E+00
   1   10    7     6     2    1.2407E+00  1.2407E+00   0.0000E+00  0.000E+00  0.000E+00  0.000E+00  1.03823E+03  4.533E-02  1.200E+01  6.000E-01  1.015E+00
   1   11    7     6     3    0.0000E+00  0.0000E+00   0.0000E+00  0.000E+00  0.000E+00  0.000E+00  1.03364E+03  0.000E+00  1.200E+01  6.000E-01  1.000E+00
   1   12    7     6     4    0.0000E+00  0.0000E+00   0.0000E+00  0.000E+00  0.000E+00  0.000E+00  1.02909E+03  0.000E+00  1.200E+01  6.000E-01  2.905E-01
   1   13    7     6     5    0.0000E+00 -7.7838E-01   7.7838E-01  0.000E+00  0.000E+00  0.000E+00  1.02601E+03  1.005E-01  1.200E+01  2.400E-01 -1.081E+00
   1   14    9     7     1    1.5000E+02  2.0478E+00   1.4795E+02  0.000E+00  0.000E+00  0.000E+00  1.03987E+03  2.286E+00  5.529E+01  5.592E+00  1.221E-01
   1   13    8     7     2    1.4795E+02  3.0008E+00   1.4495E+02  0.000E+00  0.000E+00  0.000E+00  1.03477E+03  2.272E+00  5.523E+01  6.144E+00  1.628E-01
   1   13    7     7     3    1.4495E+02  2.3680E+00   1.4258E+02  0.000E+00  0.000E+00  0.000E+00  1.02968E+03  2.258E+00  5.516E+01  5.578E+00  1.415E-01
   1   13    6     8     1    1.4336E+02  6.8877E-01   1.4267E+02  0.000E+00  0.000E+00  0.000E+00  1.02464E+03  2.767E+00  4.012E+01  4.088E+00  5.616E-02
   1   13    5     8     2    1.4267E+02 -2.2310E+00   1.4490E+02  0.000E+00  0.000E+00  0.000E+00  1.01840E+03  2.773E+00  4.020E+01  4.097E+00 -1.815E-01
   1   13    4     8     3    1.4490E+02 -3.9838E+00   1.4889E+02  0.000E+00  0.000E+00  0.000E+00  1.01217E+03  2.795E+00  4.053E+01  4.130E+00 -3.216E-01
   1   13    3     8     4    1.4889E+02 -4.2641E+00   1.5315E+02  0.000E+00  0.000E+00  0.000E+00  1.00595E+03  2.824E+00  4.095E+01  4.173E+00 -3.406E-01
   1   13    2     8     5    1.5315E+02 -2.0803E+00   1.5523E+02  0.000E+00  0.000E+00  0.000E+00  9.99721E+02  2.846E+00  4.127E+01  4.205E+00 -1.649E-01
   1   13    1     8     6    1.5523E+02 -5.7110E-01   1.5580E+02  0.000E+00  0.000E+00  0.000E+00  9.94730E+02  2.855E+00  4.140E+01  2.531E+00 -7.520E-02



 UBDSV3 SAVING "           GW ET" ON UNIT  61 AT TIME STEP 15, STRESS PERIOD   6
 UBDSV3 SAVING "    UZF RECHARGE" ON UNIT  61 AT TIME STEP 15, STRESS PERIOD   6
 UBDSV3 SAVING " SURFACE LEAKAGE" ON UNIT  61 AT TIME STEP 15, STRESS PERIOD   6
 UBDSV3 SAVING "       HORT+DUNN" ON UNIT  61 AT TIME STEP 15, STRESS PERIOD   6
 UBDSV3 SAVING "  STORAGE CHANGE" ON UNIT  61 AT TIME STEP 15, STRESS PERIOD   6


UNSATURATED ZONE PACKAGE VOLUMETRIC BUDGET FOR  TIME STEP    15 STRESS PERIOD    6
  ------------------------------------------------------------------------------



     CUMULATIVE VOLUMES      L**3       RATES FOR THIS TIME STEP      L**3/T
     ------------------                 ------------------------

           IN:                                      IN:
           ---                                      ---
        INFILTRATION =  1202704104.7451          INFILTRATION =          84.7500

          OUT:                                     OUT:
          ----                                     ----
              UZF ET =  1257361403.9912                UZF ET =          67.6009
        UZF RECHARGE =   214673850.9971          UZF RECHARGE =          18.8500

            IN - OUT =  -269331150.2432              IN - OUT =          -1.7009

          STORAGE:                                 STORAGE:
          --------                                 --------
      STORAGE CHANGE =  -269146459.5661        STORAGE CHANGE =          -1.6698

 PERCENT DISCREPANCY IS DIFFERENCE BETWEEN IN-OUT MINUS CHANGE IN STORAGE
 DIVIDED BY THE AVERAGE OF IN AND OUT TIMES 100

 PERCENT DISCREPANCY =          -0.00     PERCENT DISCREPANCY =          -0.04






1
              HEAD IN LAYER   1 AT END OF TIME STEP  15 IN STRESS PERIOD    6
  ---------------------------------------------------------------------------

           1       2       3       4       5       6       7       8       9      10
 ...................................................................................
   1  1092.45 1088.68 6999.00 6999.00 6999.00 6999.00 6999.00 6999.00 6999.00 6999.00
   2  1089.14 1085.71 1079.19 6999.00 6999.00 1072.43 1071.25 1070.48 6999.00 6999.00
   3  6999.00 1077.42 1074.39 1070.29 1072.05 1070.77 1068.92 1068.15 6999.00 6999.00
   4  1067.83 1068.38 1066.68 1063.18 1062.10 1060.86 1061.65 1064.56 1063.82 6999.00
   5  1063.68 1061.29 1058.66 1056.66 1056.45 1057.13 1057.12 1059.35 1062.90 1065.34
   6  1059.00 1055.35 1052.20 1050.54 1050.92 1052.48 1053.97 1056.54 1059.38 1063.66
   7  1055.34 1049.68 1046.32 1044.84 1045.56 1047.47 1050.21 1052.70 1054.13 6999.00
   8  6999.00 1042.34 1040.26 1039.25 1040.26 1042.39 1044.48 1047.12 1049.14 6999.00
   9  6999.00 1035.39 1034.28 1033.93 1035.25 1037.53 1038.69 1040.63 1043.72 6999.00
  10  6999.00 1028.37 1028.35 1029.11 1030.66 1032.66 1034.31 1036.19 1039.99 1044.38
  11  6999.00 1019.63 1021.15 1024.46 1026.55 1028.77 1030.45 1032.79 1036.27 6999.00
  12  1001.18 1008.84 1014.04 1018.81 1022.46 1025.75 1028.22 1031.09 1034.86 6999.00
  13   994.96 1000.22 1006.97 1013.13 1018.94 1024.47 1029.25 1034.28 1036.43 6999.00
  14  6999.00 1005.82 1011.53 1016.25 1021.28 1026.08 1030.38 1035.32 1039.50 6999.00
  15  6999.00 6999.00 1018.84 1021.83 1025.56 1028.55 6999.00 6999.00 6999.00 6999.00

 HEAD WILL BE SAVED ON UNIT   58 AT END OF TIME STEP   15, STRESS PERIOD    6
1
  VOLUMETRIC BUDGET FOR ENTIRE MODEL AT END OF TIME STEP   15, STRESS PERIOD   6
  ------------------------------------------------------------------------------

     CUMULATIVE VOLUMES      L**3       RATES FOR THIS TIME STEP      L**3/T
     ------------------                 ------------------------

           IN:                                      IN:
           ---                                      ---
             STORAGE =    51365356.0000               STORAGE =           0.4061
       CONSTANT HEAD =           0.0000         CONSTANT HEAD =           0.0000
               WELLS =           0.0000                 WELLS =           0.0000
     HEAD DEP BOUNDS =     3293258.0000       HEAD DEP BOUNDS =           0.2090
      STREAM LEAKAGE =   680724416.0000        STREAM LEAKAGE =          43.1054
        UZF RECHARGE =   214673920.0000          UZF RECHARGE =          18.8500
               GW ET =           0.0000                 GW ET =           0.0000
     SURFACE LEAKAGE =           0.0000       SURFACE LEAKAGE =           0.0000

            TOTAL IN =   950056960.0000              TOTAL IN =          62.5705

          OUT:                                     OUT:
          ----                                     ----
             STORAGE =   234416384.0000               STORAGE =          30.2596
       CONSTANT HEAD =           0.0000         CONSTANT HEAD =           0.0000
               WELLS =   236519984.0000                 WELLS =           0.0000
     HEAD DEP BOUNDS =     4154028.0000       HEAD DEP BOUNDS =           0.2643
      STREAM LEAKAGE =   212402480.0000        STREAM LEAKAGE =          13.9087
        UZF RECHARGE =           0.0000          UZF RECHARGE =           0.0000
               GW ET =   262469152.0000                 GW ET =          18.1611
     SURFACE LEAKAGE =           0.0000       SURFACE LEAKAGE =           0.0000

           TOTAL OUT =   949961984.0000             TOTAL OUT =          62.5938

            IN - OUT =       94976.0000              IN - OUT =      -2.3239E-02

 PERCENT DISCREPANCY =           0.01     PERCENT DISCREPANCY =          -0.04






         TIME SUMMARY AT END OF TIME STEP   15 IN STRESS PERIOD    6
                    SECONDS     MINUTES      HOURS       DAYS        YEARS
                    -----------------------------------------------------------
   TIME STEP LENGTH 3.14103E+05  5235.0      87.251      3.6354     9.95332E-03
 STRESS PERIOD TIME 2.62800E+06  43800.      730.00      30.417     8.32763E-02
         TOTAL TIME 1.57680E+07 2.62800E+05  4380.0      182.50     0.49966    
1
1
                            STRESS PERIOD NO.    7, LENGTH =   2628000.    
                            -----------------------------------------------

                              NUMBER OF TIME STEPS =    15

                               MULTIPLIER FOR DELT =     1.100

                            INITIAL TIME STEP SIZE =   82713.07    

 WELL NO.  LAYER   ROW   COL   STRESS RATE         
 --------------------------------------------------
      1      1      6      4      -2.000    
      2      1      6      5      -2.000    
      3      1      7      4      -2.000    
      4      1      7      5      -2.000    
      5      1      8      4      -2.000    
      6      1      8      5      -2.000    
      7      1      9      4      -2.000    
      8      1      9      5      -2.000    
      9      1     10      4      -2.000    
     10      1     10      5      -2.000    

     10 WELLS

 REUSING NON-PARAMETER GHB CELLS FROM LAST STRESS PERIOD

      2 GHB CELLS

 REUSING STREAM SEGMENT DATA FROM LAST STRESS PERIOD



            AREAL INFILTRATION RATE
 READING ON UNIT   19 WITH FORMAT: (10F4.0)            

            1           2           3           4           5           6           7           8           9          10
 ........................................................................................................................
   1   3.0000E-09  6.0000E-09   0.000       0.000       0.000       0.000       0.000       0.000       0.000       0.000    
   2   6.0000E-09  3.0000E-09  6.0000E-09   0.000       0.000      2.4000E-08  2.4000E-08  1.5000E-08   0.000       0.000    
   3    0.000      1.5000E-08  3.0000E-09  3.0000E-09  2.4000E-08  2.4000E-08  1.5000E-08  1.5000E-08   0.000       0.000    
   4   2.4000E-08  1.5000E-08  3.0000E-09  3.0000E-09  3.0000E-09  3.0000E-09  3.0000E-09  3.0000E-09  6.0000E-09   0.000    
   5   2.4000E-08  1.5000E-08  3.0000E-09  3.0000E-09  3.0000E-09  3.0000E-09  3.0000E-09  3.0000E-09  3.0000E-09  3.0000E-09
   6   2.4000E-08  1.5000E-08  1.5000E-08  6.0000E-09  6.0000E-09  3.0000E-09  3.0000E-09  3.0000E-09  3.0000E-09  1.5000E-08
   7   2.4000E-08  1.5000E-08  1.5000E-08  6.0000E-09  6.0000E-09  3.0000E-09  3.0000E-09  6.0000E-09  6.0000E-09   0.000    
   8    0.000      1.5000E-08  1.5000E-08  6.0000E-09  6.0000E-09  3.0000E-09  3.0000E-09  6.0000E-09  1.5000E-08   0.000    
   9    0.000      1.5000E-08  1.5000E-08  6.0000E-09  6.0000E-09  3.0000E-09  3.0000E-09  6.0000E-09  1.5000E-08   0.000    
  10    0.000      1.5000E-08  1.5000E-08  6.0000E-09  6.0000E-09  3.0000E-09  3.0000E-09  6.0000E-09  1.5000E-08  2.4000E-08
  11    0.000      3.0000E-09  3.0000E-09  3.0000E-09  3.0000E-09  3.0000E-09  3.0000E-09  6.0000E-09  1.5000E-08   0.000    
  12   3.0000E-09  3.0000E-09  3.0000E-09  3.0000E-09  3.0000E-09  3.0000E-09  3.0000E-09  3.0000E-09  6.0000E-09   0.000    
  13   3.0000E-09  3.0000E-09  6.0000E-09  6.0000E-09  6.0000E-09  6.0000E-09  6.0000E-09  3.0000E-09  3.0000E-09   0.000    
  14    0.000      6.0000E-09  1.5000E-08  1.5000E-08  1.5000E-08  1.5000E-08  1.5000E-08  6.0000E-09  3.0000E-09   0.000    
  15    0.000       0.000      2.4000E-08  2.4000E-08  2.4000E-08  2.4000E-08   0.000       0.000       0.000       0.000    

USING ET RATE FROM PREVIOUS STRESS PERIOD. CURRENT PERIOD IS:       7

 USING ET EXTINCTION DEPTH FROM PREVIOUS STRESS PERIOD. CURRENT PERIOD IS:       7

 USING EXTINCTION WATER CONTENT FROM PREVIOUS STRESS PERIOD. CURRENT PERIOD IS:       7
 
 SOLVING FOR HEAD 

    10 ITERATIONS FOR TIME STEP   1 IN STRESS PERIOD    7

 MAXIMUM HEAD CHANGE FOR EACH ITERATION:

    HEAD CHANGE   HEAD CHANGE   HEAD CHANGE   HEAD CHANGE   HEAD CHANGE
  LAYER,ROW,COL LAYER,ROW,COL LAYER,ROW,COL LAYER,ROW,COL LAYER,ROW,COL
 ----------------------------------------------------------------------
     0.3335E-01    0.1857E-01    0.1036E-01    0.5728E-02    0.3206E-02
  (  1,  2,  7) (  1,  2,  7) (  1,  2,  7) (  1,  2,  7) (  1,  2,  7)
     0.1774E-02    0.9727E-03    0.5549E-03    0.3170E-03    0.1666E-03
  (  1,  2,  7) (  1,  2,  7) (  1,  2,  7) (  1,  2,  7) (  1,  2,  7)


 NO OUTPUT CONTROL FOR STRESS PERIOD    7   TIME STEP    1
 
 SOLVING FOR HEAD 
    10 ITERATIONS FOR TIME STEP   2 IN STRESS PERIOD    7

 MAXIMUM HEAD CHANGE FOR EACH ITERATION:

    HEAD CHANGE   HEAD CHANGE   HEAD CHANGE   HEAD CHANGE   HEAD CHANGE
  LAYER,ROW,COL LAYER,ROW,COL LAYER,ROW,COL LAYER,ROW,COL LAYER,ROW,COL
 ----------------------------------------------------------------------
     0.3818E-01    0.2111E-01    0.1170E-01    0.6473E-02    0.3616E-02
  (  1,  2,  7) (  1,  2,  7) (  1,  2,  7) (  1,  2,  7) (  1,  2,  7)
     0.1969E-02    0.1130E-02    0.6222E-03    0.2944E-03    0.1721E-03
  (  1,  2,  7) (  1,  2,  7) (  1,  2,  7) (  1,  2,  7) (  1,  2,  7)


 NO OUTPUT CONTROL FOR STRESS PERIOD    7   TIME STEP    2
 
 SOLVING FOR HEAD 
    10 ITERATIONS FOR TIME STEP   3 IN STRESS PERIOD    7

 MAXIMUM HEAD CHANGE FOR EACH ITERATION:

    HEAD CHANGE   HEAD CHANGE   HEAD CHANGE   HEAD CHANGE   HEAD CHANGE
  LAYER,ROW,COL LAYER,ROW,COL LAYER,ROW,COL LAYER,ROW,COL LAYER,ROW,COL
 ----------------------------------------------------------------------
     0.4103E-01    0.2259E-01    0.1242E-01    0.6842E-02    0.3734E-02
  (  1,  2,  7) (  1,  2,  7) (  1,  2,  7) (  1,  2,  7) (  1,  2,  7)
     0.2054E-02    0.1158E-02    0.6051E-03    0.3699E-03    0.1985E-03
  (  1,  2,  7) (  1,  2,  7) (  1,  2,  7) (  1,  2,  7) (  1,  2,  7)


 NO OUTPUT CONTROL FOR STRESS PERIOD    7   TIME STEP    3
 
 SOLVING FOR HEAD 
    11 ITERATIONS FOR TIME STEP   4 IN STRESS PERIOD    7

 MAXIMUM HEAD CHANGE FOR EACH ITERATION:

    HEAD CHANGE   HEAD CHANGE   HEAD CHANGE   HEAD CHANGE   HEAD CHANGE
  LAYER,ROW,COL LAYER,ROW,COL LAYER,ROW,COL LAYER,ROW,COL LAYER,ROW,COL
 ----------------------------------------------------------------------
     0.4314E-01    0.2342E-01    0.1276E-01    0.6933E-02    0.3714E-02
  (  1,  2,  7) (  1,  2,  7) (  1,  2,  7) (  1,  2,  7) (  1,  2,  7)
     0.2043E-02    0.1093E-02    0.6292E-03    0.3312E-03    0.2030E-03
  (  1,  2,  7) (  1,  2,  7) (  1,  2,  7) (  1,  2,  7) (  1,  2,  7)
     0.1090E-03
  (  1,  2,  7)


 NO OUTPUT CONTROL FOR STRESS PERIOD    7   TIME STEP    4
 
 SOLVING FOR HEAD 
    10 ITERATIONS FOR TIME STEP   5 IN STRESS PERIOD    7

 MAXIMUM HEAD CHANGE FOR EACH ITERATION:

    HEAD CHANGE   HEAD CHANGE   HEAD CHANGE   HEAD CHANGE   HEAD CHANGE
  LAYER,ROW,COL LAYER,ROW,COL LAYER,ROW,COL LAYER,ROW,COL LAYER,ROW,COL
 ----------------------------------------------------------------------
     0.4383E-01    0.2375E-01    0.1280E-01    0.6926E-02    0.3794E-02
  (  1,  2,  7) (  1,  2,  7) (  1,  2,  7) (  1,  2,  7) (  1,  2,  7)
     0.2038E-02    0.1085E-02    0.5931E-03    0.3442E-03    0.1441E-03
  (  1,  2,  7) (  1,  2,  7) (  1,  2,  7) (  1,  2,  7) (  1,  2,  7)


 OUTPUT CONTROL FOR STRESS PERIOD    7   TIME STEP    5
    PRINT BUDGET
    SAVE BUDGET

            WELLS   PERIOD    7   STEP   5
 WELL      1   LAYER   1   ROW     6   COL     4   RATE    -2.00000    
 WELL      2   LAYER   1   ROW     6   COL     5   RATE    -2.00000    
 WELL      3   LAYER   1   ROW     7   COL     4   RATE    -2.00000    
 WELL      4   LAYER   1   ROW     7   COL     5   RATE    -2.00000    
 WELL      5   LAYER   1   ROW     8   COL     4   RATE    -2.00000    
 WELL      6   LAYER   1   ROW     8   COL     5   RATE    -2.00000    
 WELL      7   LAYER   1   ROW     9   COL     4   RATE    -2.00000    
 WELL      8   LAYER   1   ROW     9   COL     5   RATE    -2.00000    
 WELL      9   LAYER   1   ROW    10   COL     4   RATE    -2.00000    
 WELL     10   LAYER   1   ROW    10   COL     5   RATE    -2.00000    

  HEAD DEP BOUNDS   PERIOD    7   STEP   5
 BOUNDARY      1   LAYER   1   ROW    13   COL     1   RATE   -0.264092    
 BOUNDARY      2   LAYER   1   ROW    14   COL     9   RATE    0.208972    



 STREAM LISTING     PERIOD      7   STEP        5

 LAYER ROW COL. STREAM  RCH.  FLOW INTO     FLOW TO   FLOW OUT OF   OVRLND.     DIRECT     STREAM       STREAM     STREAM     STREAM   STREAMBED  STREAMBED
                SEG.NO.  NO.  STRM. RCH.    AQUIFER    STRM. RCH.    RUNOFF     PRECIP       ET          HEAD       DEPTH      WIDTH   CONDCTNC.   GRADIENT

   1    1    1     1     1    2.5000E+01  1.0349E+00   2.3965E+01  0.000E+00  0.000E+00  0.000E+00  1.09422E+03  1.172E+00  1.296E+01  5.832E-01  5.916E-01
   1    2    2     1     2    2.3965E+01  3.0626E+00   2.0902E+01  0.000E+00  0.000E+00  0.000E+00  1.08920E+03  1.141E+00  1.254E+01  8.775E-01  1.163E+00
   1    3    3     1     3    2.0902E+01  2.9050E+00   1.7997E+01  0.000E+00  0.000E+00  0.000E+00  1.08351E+03  1.091E+00  1.183E+01  7.101E-01  1.364E+00
   1    3    4     1     4    1.7997E+01  2.4676E+00   1.5530E+01  0.000E+00  0.000E+00  0.000E+00  1.07845E+03  1.045E+00  1.099E+01  6.100E-01  1.348E+00
   1    4    5     2     1    5.5298E+00  2.6629E+00   2.8669E+00  0.000E+00  0.000E+00  0.000E+00  1.07235E+03  4.140E-01  1.200E+01  7.800E-01  1.138E+00
   1    5    6     2     2    2.8669E+00  1.9539E+00   9.1302E-01  0.000E+00  0.000E+00  0.000E+00  1.06677E+03  2.565E-01  1.200E+01  6.000E-01  1.085E+00
   1    6    6     2     3    9.1302E-01  9.1302E-01   0.0000E+00  0.000E+00  0.000E+00  0.000E+00  1.06180E+03  9.323E-03  1.200E+01  6.000E-01  1.003E+00
   1    7    6     2     4    0.0000E+00  0.0000E+00   0.0000E+00  0.000E+00  0.000E+00  0.000E+00  1.05708E+03  0.000E+00  1.200E+01  6.000E-01  1.000E+00
   1    8    6     2     5    0.0000E+00  0.0000E+00   0.0000E+00  0.000E+00  0.000E+00  0.000E+00  1.05236E+03  0.000E+00  1.200E+01  6.000E-01  1.000E+00
   1    3    5     3     1    1.0000E+01  2.4598E+00   7.5402E+00  0.000E+00  0.000E+00  0.000E+00  1.07555E+03  1.909E+00  9.636E+00  7.227E-01  1.702E+00
   1    3    6     3     2    7.5402E+00  1.1889E+00   6.3513E+00  0.000E+00  0.000E+00  0.000E+00  1.07264E+03  1.727E+00  8.909E+00  6.682E-01  8.897E-01
   1    3    7     3     3    6.3513E+00  5.0023E-01   5.8511E+00  0.000E+00  0.000E+00  0.000E+00  1.06987E+03  1.555E+00  8.218E+00  5.547E-01  4.509E-01
   1    4    8     3     4    5.8511E+00  1.5133E+00   4.3378E+00  0.000E+00  0.000E+00  0.000E+00  1.06682E+03  1.364E+00  7.455E+00  6.709E-01  1.128E+00
   1    5    8     3     5    4.3378E+00  1.5790E+00   2.7588E+00  0.000E+00  0.000E+00  0.000E+00  1.06362E+03  1.164E+00  6.655E+00  4.991E-01  1.582E+00
   1    6    8     3     6    2.7588E+00  5.5980E-01   2.1990E+00  0.000E+00  0.000E+00  0.000E+00  1.06158E+03  1.036E+00  6.145E+00  1.844E-01  1.518E+00
   1    5   10     4     1    1.0000E+01  9.0525E-01   9.0947E+00  0.000E+00  0.000E+00  0.000E+00  1.07835E+03  6.210E-01  1.000E+01  2.500E-01  1.207E+00
   1    5    9     4     2    9.0947E+00  1.7835E+00   7.3113E+00  0.000E+00  0.000E+00  0.000E+00  1.07148E+03  5.670E-01  1.000E+01  5.000E-01  1.189E+00
   1    6    8     4     3    7.3113E+00  1.2257E+00   6.0855E+00  0.000E+00  0.000E+00  0.000E+00  1.06368E+03  5.021E-01  1.000E+01  3.500E-01  1.167E+00
   1    6    8     5     1    8.2845E+00  1.0713E+00   7.2132E+00  0.000E+00  0.000E+00  0.000E+00  1.05861E+03  6.143E-01  1.298E+01  5.193E-01  6.877E-01
   1    7    7     5     2    7.2132E+00  2.0260E+00   5.1872E+00  0.000E+00  0.000E+00  0.000E+00  1.05407E+03  5.682E-01  1.136E+01  5.678E-01  1.189E+00
   1    8    7     5     3    5.1872E+00  1.1675E+00   4.0197E+00  0.000E+00  0.000E+00  0.000E+00  1.04976E+03  5.119E-01  9.498E+00  3.324E-01  1.171E+00
   1    8    6     5     4    4.0197E+00  7.1858E-01   3.3012E+00  0.000E+00  0.000E+00  0.000E+00  1.04672E+03  4.725E-01  8.278E+00  2.069E-01  1.157E+00
   1    9    6     6     1    3.3012E+00  1.9757E+00   1.3255E+00  0.000E+00  0.000E+00  0.000E+00  1.04302E+03  2.928E-01  1.200E+01  6.000E-01  1.098E+00
   1   10    7     6     2    1.3255E+00  1.3255E+00   0.0000E+00  0.000E+00  0.000E+00  0.000E+00  1.03823E+03  4.716E-02  1.200E+01  6.000E-01  1.016E+00
   1   11    7     6     3    0.0000E+00  0.0000E+00   0.0000E+00  0.000E+00  0.000E+00  0.000E+00  1.03364E+03  0.000E+00  1.200E+01  6.000E-01  1.000E+00
   1   12    7     6     4    0.0000E+00  0.0000E+00   0.0000E+00  0.000E+00  0.000E+00  0.000E+00  1.02909E+03  0.000E+00  1.200E+01  6.000E-01  2.899E-01
   1   13    7     6     5    0.0000E+00 -7.7772E-01   7.7772E-01  0.000E+00  0.000E+00  0.000E+00  1.02601E+03  1.004E-01  1.200E+01  2.400E-01 -1.080E+00
   1   14    9     7     1    1.5000E+02  2.0455E+00   1.4795E+02  0.000E+00  0.000E+00  0.000E+00  1.03987E+03  2.286E+00  5.529E+01  5.592E+00  1.219E-01
   1   13    8     7     2    1.4795E+02  3.0014E+00   1.4495E+02  0.000E+00  0.000E+00  0.000E+00  1.03477E+03  2.272E+00  5.523E+01  6.144E+00  1.628E-01
   1   13    7     7     3    1.4495E+02  2.3834E+00   1.4257E+02  0.000E+00  0.000E+00  0.000E+00  1.02968E+03  2.258E+00  5.516E+01  5.578E+00  1.424E-01
   1   13    6     8     1    1.4335E+02  6.6214E-01   1.4269E+02  0.000E+00  0.000E+00  0.000E+00  1.02464E+03  2.767E+00  4.012E+01  4.088E+00  5.399E-02
   1   13    5     8     2    1.4269E+02 -2.2379E+00   1.4492E+02  0.000E+00  0.000E+00  0.000E+00  1.01840E+03  2.773E+00  4.020E+01  4.097E+00 -1.821E-01
   1   13    4     8     3    1.4492E+02 -3.9748E+00   1.4890E+02  0.000E+00  0.000E+00  0.000E+00  1.01217E+03  2.795E+00  4.053E+01  4.130E+00 -3.208E-01
   1   13    3     8     4    1.4890E+02 -4.2703E+00   1.5317E+02  0.000E+00  0.000E+00  0.000E+00  1.00595E+03  2.824E+00  4.095E+01  4.173E+00 -3.411E-01
   1   13    2     8     5    1.5317E+02 -2.0818E+00   1.5525E+02  0.000E+00  0.000E+00  0.000E+00  9.99721E+02  2.846E+00  4.127E+01  4.206E+00 -1.650E-01
   1   13    1     8     6    1.5525E+02 -5.5553E-01   1.5581E+02  0.000E+00  0.000E+00  0.000E+00  9.94730E+02  2.855E+00  4.140E+01  2.531E+00 -7.315E-02



 UBDSV3 SAVING "           GW ET" ON UNIT  61 AT TIME STEP  5, STRESS PERIOD   7
 UBDSV3 SAVING "    UZF RECHARGE" ON UNIT  61 AT TIME STEP  5, STRESS PERIOD   7
 UBDSV3 SAVING " SURFACE LEAKAGE" ON UNIT  61 AT TIME STEP  5, STRESS PERIOD   7
 UBDSV3 SAVING "       HORT+DUNN" ON UNIT  61 AT TIME STEP  5, STRESS PERIOD   7
 UBDSV3 SAVING "  STORAGE CHANGE" ON UNIT  61 AT TIME STEP  5, STRESS PERIOD   7


UNSATURATED ZONE PACKAGE VOLUMETRIC BUDGET FOR  TIME STEP     5 STRESS PERIOD    7
  ------------------------------------------------------------------------------



     CUMULATIVE VOLUMES      L**3       RATES FOR THIS TIME STEP      L**3/T
     ------------------                 ------------------------

           IN:                                      IN:
           ---                                      ---
        INFILTRATION =  1215543007.0791          INFILTRATION =          25.4250

          OUT:                                     OUT:
          ----                                     ----
              UZF ET =  1291757837.5151                UZF ET =          68.3458
        UZF RECHARGE =   223428476.7411          UZF RECHARGE =          16.9778

            IN - OUT =  -299643307.1771              IN - OUT =         -59.8986

          STORAGE:                                 STORAGE:
          --------                                 --------
      STORAGE CHANGE =  -299457479.0423        STORAGE CHANGE =         -59.8938

 PERCENT DISCREPANCY IS DIFFERENCE BETWEEN IN-OUT MINUS CHANGE IN STORAGE
 DIVIDED BY THE AVERAGE OF IN AND OUT TIMES 100

 PERCENT DISCREPANCY =          -0.00     PERCENT DISCREPANCY =          -0.01






1
  VOLUMETRIC BUDGET FOR ENTIRE MODEL AT END OF TIME STEP    5, STRESS PERIOD   7
  ------------------------------------------------------------------------------

     CUMULATIVE VOLUMES      L**3       RATES FOR THIS TIME STEP      L**3/T
     ------------------                 ------------------------

           IN:                                      IN:
           ---                                      ---
             STORAGE =    54534928.0000               STORAGE =           5.9449
       CONSTANT HEAD =           0.0000         CONSTANT HEAD =           0.0000
               WELLS =           0.0000                 WELLS =           0.0000
     HEAD DEP BOUNDS =     3398786.2500       HEAD DEP BOUNDS =           0.2090
      STREAM LEAKAGE =   702493632.0000        STREAM LEAKAGE =          43.0925
        UZF RECHARGE =   223428528.0000          UZF RECHARGE =          16.9778
               GW ET =           0.0000                 GW ET =           0.0000
     SURFACE LEAKAGE =           0.0000       SURFACE LEAKAGE =           0.0000

            TOTAL IN =   983855872.0000              TOTAL IN =          66.2241

          OUT:                                     OUT:
          ----                                     ----
             STORAGE =   241769136.0000               STORAGE =          13.8555
       CONSTANT HEAD =           0.0000         CONSTANT HEAD =           0.0000
               WELLS =   246619408.0000                 WELLS =          20.0000
     HEAD DEP BOUNDS =     4287430.5000       HEAD DEP BOUNDS =           0.2641
      STREAM LEAKAGE =   219426048.0000        STREAM LEAKAGE =          13.8981
        UZF RECHARGE =           0.0000          UZF RECHARGE =           0.0000
               GW ET =   271643456.0000                 GW ET =          18.1722
     SURFACE LEAKAGE =           0.0000       SURFACE LEAKAGE =           0.0000

           TOTAL OUT =   983745472.0000             TOTAL OUT =          66.1899

            IN - OUT =      110400.0000              IN - OUT =       3.4225E-02

 PERCENT DISCREPANCY =           0.01     PERCENT DISCREPANCY =           0.05






         TIME SUMMARY AT END OF TIME STEP    5 IN STRESS PERIOD    7
                    SECONDS     MINUTES      HOURS       DAYS        YEARS
                    -----------------------------------------------------------
   TIME STEP LENGTH 1.21100E+05  2018.3      33.639      1.4016     3.83743E-03
 STRESS PERIOD TIME 5.04972E+05  8416.2      140.27      5.8446     1.60016E-02
         TOTAL TIME 1.62730E+07 2.71216E+05  4520.3      188.34     0.51566    
1
 
 SOLVING FOR HEAD 
    11 ITERATIONS FOR TIME STEP   6 IN STRESS PERIOD    7

 MAXIMUM HEAD CHANGE FOR EACH ITERATION:

    HEAD CHANGE   HEAD CHANGE   HEAD CHANGE   HEAD CHANGE   HEAD CHANGE
  LAYER,ROW,COL LAYER,ROW,COL LAYER,ROW,COL LAYER,ROW,COL LAYER,ROW,COL
 ----------------------------------------------------------------------
     0.4634E-01    0.2499E-01    0.1344E-01    0.7238E-02    0.3930E-02
  (  1,  2,  7) (  1,  2,  7) (  1,  2,  7) (  1,  2,  7) (  1,  2,  7)
     0.2110E-02    0.1084E-02    0.6302E-03    0.2915E-03    0.2235E-03
  (  1,  2,  7) (  1,  2,  7) (  1,  2,  7) (  1,  2,  7) (  1,  2,  7)
    -0.1230E-03
  (  1, 13,  1)


 NO OUTPUT CONTROL FOR STRESS PERIOD    7   TIME STEP    6
 
 SOLVING FOR HEAD 
    10 ITERATIONS FOR TIME STEP   7 IN STRESS PERIOD    7

 MAXIMUM HEAD CHANGE FOR EACH ITERATION:

    HEAD CHANGE   HEAD CHANGE   HEAD CHANGE   HEAD CHANGE   HEAD CHANGE
  LAYER,ROW,COL LAYER,ROW,COL LAYER,ROW,COL LAYER,ROW,COL LAYER,ROW,COL
 ----------------------------------------------------------------------
     0.4765E-01    0.2527E-01    0.1342E-01    0.7142E-02    0.3794E-02
  (  1,  2,  7) (  1,  2,  7) (  1,  2,  7) (  1,  2,  7) (  1,  2,  7)
     0.2032E-02    0.1043E-02    0.5722E-03    0.2963E-03    0.1506E-03
  (  1,  2,  7) (  1,  2,  7) (  1,  2,  7) (  1,  2,  7) (  1,  2,  7)


 NO OUTPUT CONTROL FOR STRESS PERIOD    7   TIME STEP    7
 
 SOLVING FOR HEAD 
    10 ITERATIONS FOR TIME STEP   8 IN STRESS PERIOD    7

 MAXIMUM HEAD CHANGE FOR EACH ITERATION:

    HEAD CHANGE   HEAD CHANGE   HEAD CHANGE   HEAD CHANGE   HEAD CHANGE
  LAYER,ROW,COL LAYER,ROW,COL LAYER,ROW,COL LAYER,ROW,COL LAYER,ROW,COL
 ----------------------------------------------------------------------
     0.4817E-01    0.2544E-01    0.1339E-01    0.7078E-02    0.3715E-02
  (  1,  2,  7) (  1,  2,  7) (  1,  2,  7) (  1,  2,  7) (  1,  2,  7)
     0.2043E-02    0.1008E-02    0.6012E-03    0.3202E-03    0.1640E-03
  (  1,  2,  7) (  1,  2,  7) (  1,  2,  7) (  1,  2,  7) (  1,  2,  7)


 NO OUTPUT CONTROL FOR STRESS PERIOD    7   TIME STEP    8
 
 SOLVING FOR HEAD 
    10 ITERATIONS FOR TIME STEP   9 IN STRESS PERIOD    7

 MAXIMUM HEAD CHANGE FOR EACH ITERATION:

    HEAD CHANGE   HEAD CHANGE   HEAD CHANGE   HEAD CHANGE   HEAD CHANGE
  LAYER,ROW,COL LAYER,ROW,COL LAYER,ROW,COL LAYER,ROW,COL LAYER,ROW,COL
 ----------------------------------------------------------------------
     0.5026E-01    0.2653E-01    0.1398E-01    0.7353E-02    0.3832E-02
  (  1,  2,  7) (  1,  2,  7) (  1,  2,  7) (  1,  2,  7) (  1,  2,  7)
     0.2029E-02    0.1065E-02    0.5424E-03    0.2731E-03    0.1645E-03
  (  1,  2,  7) (  1,  2,  7) (  1,  2,  7) (  1,  2,  7) (  1,  2,  7)


 NO OUTPUT CONTROL FOR STRESS PERIOD    7   TIME STEP    9
 
 SOLVING FOR HEAD 
    10 ITERATIONS FOR TIME STEP  10 IN STRESS PERIOD    7

 MAXIMUM HEAD CHANGE FOR EACH ITERATION:

    HEAD CHANGE   HEAD CHANGE   HEAD CHANGE   HEAD CHANGE   HEAD CHANGE
  LAYER,ROW,COL LAYER,ROW,COL LAYER,ROW,COL LAYER,ROW,COL LAYER,ROW,COL
 ----------------------------------------------------------------------
     0.4927E-01    0.2541E-01    0.1311E-01    0.6784E-02    0.3469E-02
  (  1,  2,  7) (  1,  2,  7) (  1,  2,  7) (  1,  2,  7) (  1,  2,  7)
     0.1840E-02    0.9111E-03    0.4839E-03    0.2776E-03    0.1162E-03
  (  1,  2,  7) (  1,  2,  7) (  1,  2,  7) (  1,  2,  7) (  1,  2,  7)


 OUTPUT CONTROL FOR STRESS PERIOD    7   TIME STEP   10
    PRINT BUDGET
    SAVE BUDGET

            WELLS   PERIOD    7   STEP  10
 WELL      1   LAYER   1   ROW     6   COL     4   RATE    -2.00000    
 WELL      2   LAYER   1   ROW     6   COL     5   RATE    -2.00000    
 WELL      3   LAYER   1   ROW     7   COL     4   RATE    -2.00000    
 WELL      4   LAYER   1   ROW     7   COL     5   RATE    -2.00000    
 WELL      5   LAYER   1   ROW     8   COL     4   RATE    -2.00000    
 WELL      6   LAYER   1   ROW     8   COL     5   RATE    -2.00000    
 WELL      7   LAYER   1   ROW     9   COL     4   RATE    -2.00000    
 WELL      8   LAYER   1   ROW     9   COL     5   RATE    -2.00000    
 WELL      9   LAYER   1   ROW    10   COL     4   RATE    -2.00000    
 WELL     10   LAYER   1   ROW    10   COL     5   RATE    -2.00000    

  HEAD DEP BOUNDS   PERIOD    7   STEP  10
 BOUNDARY      1   LAYER   1   ROW    13   COL     1   RATE   -0.263798    
 BOUNDARY      2   LAYER   1   ROW    14   COL     9   RATE    0.208963    



 STREAM LISTING     PERIOD      7   STEP       10

 LAYER ROW COL. STREAM  RCH.  FLOW INTO     FLOW TO   FLOW OUT OF   OVRLND.     DIRECT     STREAM       STREAM     STREAM     STREAM   STREAMBED  STREAMBED
                SEG.NO.  NO.  STRM. RCH.    AQUIFER    STRM. RCH.    RUNOFF     PRECIP       ET          HEAD       DEPTH      WIDTH   CONDCTNC.   GRADIENT

   1    1    1     1     1    2.5000E+01  1.0389E+00   2.3961E+01  0.000E+00  0.000E+00  0.000E+00  1.09422E+03  1.172E+00  1.296E+01  5.831E-01  5.939E-01
   1    2    2     1     2    2.3961E+01  3.0641E+00   2.0897E+01  0.000E+00  0.000E+00  0.000E+00  1.08920E+03  1.140E+00  1.253E+01  8.774E-01  1.164E+00
   1    3    3     1     3    2.0897E+01  2.9046E+00   1.7992E+01  0.000E+00  0.000E+00  0.000E+00  1.08351E+03  1.091E+00  1.183E+01  7.100E-01  1.364E+00
   1    3    4     1     4    1.7992E+01  2.4672E+00   1.5525E+01  0.000E+00  0.000E+00  0.000E+00  1.07845E+03  1.045E+00  1.099E+01  6.099E-01  1.348E+00
   1    4    5     2     1    5.5252E+00  2.6627E+00   2.8625E+00  0.000E+00  0.000E+00  0.000E+00  1.07235E+03  4.137E-01  1.200E+01  7.800E-01  1.138E+00
   1    5    6     2     2    2.8625E+00  1.9537E+00   9.0881E-01  0.000E+00  0.000E+00  0.000E+00  1.06677E+03  2.561E-01  1.200E+01  6.000E-01  1.085E+00
   1    6    6     2     3    9.0881E-01  9.0881E-01   0.0000E+00  0.000E+00  0.000E+00  0.000E+00  1.06183E+03  3.719E-02  1.200E+01  6.000E-01  1.012E+00
   1    7    6     2     4    0.0000E+00  0.0000E+00   0.0000E+00  0.000E+00  0.000E+00  0.000E+00  1.05708E+03  0.000E+00  1.200E+01  6.000E-01  1.000E+00
   1    8    6     2     5    0.0000E+00  0.0000E+00   0.0000E+00  0.000E+00  0.000E+00  0.000E+00  1.05236E+03  0.000E+00  1.200E+01  6.000E-01  1.000E+00
   1    3    5     3     1    1.0000E+01  2.4404E+00   7.5596E+00  0.000E+00  0.000E+00  0.000E+00  1.07555E+03  1.909E+00  9.636E+00  7.227E-01  1.688E+00
   1    3    6     3     2    7.5596E+00  1.1999E+00   6.3596E+00  0.000E+00  0.000E+00  0.000E+00  1.07264E+03  1.727E+00  8.909E+00  6.682E-01  8.979E-01
   1    3    7     3     3    6.3596E+00  4.8681E-01   5.8728E+00  0.000E+00  0.000E+00  0.000E+00  1.06987E+03  1.555E+00  8.218E+00  5.547E-01  4.388E-01
   1    4    8     3     4    5.8728E+00  1.5078E+00   4.3650E+00  0.000E+00  0.000E+00  0.000E+00  1.06682E+03  1.364E+00  7.455E+00  6.709E-01  1.124E+00
   1    5    8     3     5    4.3650E+00  1.5790E+00   2.7860E+00  0.000E+00  0.000E+00  0.000E+00  1.06362E+03  1.164E+00  6.655E+00  4.991E-01  1.582E+00
   1    6    8     3     6    2.7860E+00  5.5980E-01   2.2262E+00  0.000E+00  0.000E+00  0.000E+00  1.06158E+03  1.036E+00  6.145E+00  1.844E-01  1.518E+00
   1    5   10     4     1    1.0000E+01  9.0525E-01   9.0947E+00  0.000E+00  0.000E+00  0.000E+00  1.07835E+03  6.210E-01  1.000E+01  2.500E-01  1.207E+00
   1    5    9     4     2    9.0947E+00  1.7835E+00   7.3113E+00  0.000E+00  0.000E+00  0.000E+00  1.07148E+03  5.670E-01  1.000E+01  5.000E-01  1.189E+00
   1    6    8     4     3    7.3113E+00  1.2257E+00   6.0855E+00  0.000E+00  0.000E+00  0.000E+00  1.06368E+03  5.021E-01  1.000E+01  3.500E-01  1.167E+00
   1    6    8     5     1    8.3118E+00  1.0651E+00   7.2467E+00  0.000E+00  0.000E+00  0.000E+00  1.05862E+03  6.151E-01  1.301E+01  5.205E-01  6.821E-01
   1    7    7     5     2    7.2467E+00  2.0325E+00   5.2142E+00  0.000E+00  0.000E+00  0.000E+00  1.05407E+03  5.691E-01  1.139E+01  5.695E-01  1.190E+00
   1    8    7     5     3    5.2142E+00  1.1716E+00   4.0426E+00  0.000E+00  0.000E+00  0.000E+00  1.04976E+03  5.129E-01  9.529E+00  3.335E-01  1.171E+00
   1    8    6     5     4    4.0426E+00  7.2133E-01   3.3213E+00  0.000E+00  0.000E+00  0.000E+00  1.04672E+03  4.734E-01  8.307E+00  2.077E-01  1.158E+00
   1    9    6     6     1    3.3213E+00  1.9766E+00   1.3447E+00  0.000E+00  0.000E+00  0.000E+00  1.04302E+03  2.943E-01  1.200E+01  6.000E-01  1.098E+00
   1   10    7     6     2    1.3447E+00  1.3447E+00   0.0000E+00  0.000E+00  0.000E+00  0.000E+00  1.03823E+03  4.757E-02  1.200E+01  6.000E-01  1.016E+00
   1   11    7     6     3    0.0000E+00  0.0000E+00   0.0000E+00  0.000E+00  0.000E+00  0.000E+00  1.03364E+03  0.000E+00  1.200E+01  6.000E-01  1.000E+00
   1   12    7     6     4    0.0000E+00  0.0000E+00   0.0000E+00  0.000E+00  0.000E+00  0.000E+00  1.02909E+03  0.000E+00  1.200E+01  6.000E-01  2.882E-01
   1   13    7     6     5    0.0000E+00 -7.8239E-01   7.8239E-01  0.000E+00  0.000E+00  0.000E+00  1.02601E+03  1.008E-01  1.200E+01  2.400E-01 -1.087E+00
   1   14    9     7     1    1.5000E+02  2.0441E+00   1.4796E+02  0.000E+00  0.000E+00  0.000E+00  1.03987E+03  2.286E+00  5.529E+01  5.592E+00  1.218E-01
   1   13    8     7     2    1.4796E+02  2.9964E+00   1.4496E+02  0.000E+00  0.000E+00  0.000E+00  1.03477E+03  2.272E+00  5.523E+01  6.144E+00  1.626E-01
   1   13    7     7     3    1.4496E+02  2.2747E+00   1.4268E+02  0.000E+00  0.000E+00  0.000E+00  1.02968E+03  2.258E+00  5.516E+01  5.579E+00  1.359E-01
   1   13    6     8     1    1.4347E+02  5.7822E-01   1.4289E+02  0.000E+00  0.000E+00  0.000E+00  1.02464E+03  2.768E+00  4.014E+01  4.090E+00  4.712E-02
   1   13    5     8     2    1.4289E+02 -2.1332E+00   1.4502E+02  0.000E+00  0.000E+00  0.000E+00  1.01840E+03  2.774E+00  4.022E+01  4.098E+00 -1.735E-01
   1   13    4     8     3    1.4502E+02 -3.8345E+00   1.4886E+02  0.000E+00  0.000E+00  0.000E+00  1.01217E+03  2.795E+00  4.053E+01  4.130E+00 -3.095E-01
   1   13    3     8     4    1.4886E+02 -4.1473E+00   1.5300E+02  0.000E+00  0.000E+00  0.000E+00  1.00595E+03  2.823E+00  4.094E+01  4.172E+00 -3.314E-01
   1   13    2     8     5    1.5300E+02 -2.0840E+00   1.5509E+02  0.000E+00  0.000E+00  0.000E+00  9.99720E+02  2.845E+00  4.125E+01  4.204E+00 -1.652E-01
   1   13    1     8     6    1.5509E+02 -5.3869E-01   1.5563E+02  0.000E+00  0.000E+00  0.000E+00  9.94729E+02  2.854E+00  4.139E+01  2.530E+00 -7.096E-02



 UBDSV3 SAVING "           GW ET" ON UNIT  61 AT TIME STEP 10, STRESS PERIOD   7
 UBDSV3 SAVING "    UZF RECHARGE" ON UNIT  61 AT TIME STEP 10, STRESS PERIOD   7
 UBDSV3 SAVING " SURFACE LEAKAGE" ON UNIT  61 AT TIME STEP 10, STRESS PERIOD   7
 UBDSV3 SAVING "       HORT+DUNN" ON UNIT  61 AT TIME STEP 10, STRESS PERIOD   7
 UBDSV3 SAVING "  STORAGE CHANGE" ON UNIT  61 AT TIME STEP 10, STRESS PERIOD   7


UNSATURATED ZONE PACKAGE VOLUMETRIC BUDGET FOR  TIME STEP    10 STRESS PERIOD    7
  ------------------------------------------------------------------------------



     CUMULATIVE VOLUMES      L**3       RATES FOR THIS TIME STEP      L**3/T
     ------------------                 ------------------------

           IN:                                      IN:
           ---                                      ---
        INFILTRATION =  1236220188.6221          INFILTRATION =          25.4250

          OUT:                                     OUT:
          ----                                     ----
              UZF ET =  1347717048.4170                UZF ET =          69.0801
        UZF RECHARGE =   235355703.9108          UZF RECHARGE =          12.4858

            IN - OUT =  -346852563.7058              IN - OUT =         -56.1409

          STORAGE:                                 STORAGE:
          --------                                 --------
      STORAGE CHANGE =  -346663320.5531        STORAGE CHANGE =         -56.1400

 PERCENT DISCREPANCY IS DIFFERENCE BETWEEN IN-OUT MINUS CHANGE IN STORAGE
 DIVIDED BY THE AVERAGE OF IN AND OUT TIMES 100

 PERCENT DISCREPANCY =          -0.00     PERCENT DISCREPANCY =          -0.00






1
  VOLUMETRIC BUDGET FOR ENTIRE MODEL AT END OF TIME STEP   10, STRESS PERIOD   7
  ------------------------------------------------------------------------------

     CUMULATIVE VOLUMES      L**3       RATES FOR THIS TIME STEP      L**3/T
     ------------------                 ------------------------

           IN:                                      IN:
           ---                                      ---
             STORAGE =    59382624.0000               STORAGE =           6.4404
       CONSTANT HEAD =           0.0000         CONSTANT HEAD =           0.0000
               WELLS =           0.0000                 WELLS =           0.0000
     HEAD DEP BOUNDS =     3568728.2500       HEAD DEP BOUNDS =           0.2090
      STREAM LEAKAGE =   737445632.0000        STREAM LEAKAGE =          42.8934
        UZF RECHARGE =   235355760.0000          UZF RECHARGE =          12.4858
               GW ET =           0.0000                 GW ET =           0.0000
     SURFACE LEAKAGE =           0.0000       SURFACE LEAKAGE =           0.0000

            TOTAL IN =  1035752768.0000              TOTAL IN =          62.0286

          OUT:                                     OUT:
          ----                                     ----
             STORAGE =   251280544.0000               STORAGE =          10.0519
       CONSTANT HEAD =           0.0000         CONSTANT HEAD =           0.0000
               WELLS =   262884640.0000                 WELLS =          20.0000
     HEAD DEP BOUNDS =     4502056.5000       HEAD DEP BOUNDS =           0.2638
      STREAM LEAKAGE =   230552240.0000        STREAM LEAKAGE =          13.5201
        UZF RECHARGE =           0.0000          UZF RECHARGE =           0.0000
               GW ET =   286420704.0000                 GW ET =          18.1564
     SURFACE LEAKAGE =           0.0000       SURFACE LEAKAGE =           0.0000

           TOTAL OUT =  1035640192.0000             TOTAL OUT =          61.9921

            IN - OUT =      112576.0000              IN - OUT =       3.6449E-02

 PERCENT DISCREPANCY =           0.01     PERCENT DISCREPANCY =           0.06






         TIME SUMMARY AT END OF TIME STEP   10 IN STRESS PERIOD    7
                    SECONDS     MINUTES      HOURS       DAYS        YEARS
                    -----------------------------------------------------------
   TIME STEP LENGTH 1.95033E+05  3250.6      54.176      2.2573     6.18023E-03
 STRESS PERIOD TIME 1.31823E+06  21971.      366.18      15.257     4.17723E-02
         TOTAL TIME 1.70862E+07 2.84770E+05  4746.2      197.76     0.54143    
1
 
 SOLVING FOR HEAD 
    10 ITERATIONS FOR TIME STEP  11 IN STRESS PERIOD    7

 MAXIMUM HEAD CHANGE FOR EACH ITERATION:

    HEAD CHANGE   HEAD CHANGE   HEAD CHANGE   HEAD CHANGE   HEAD CHANGE
  LAYER,ROW,COL LAYER,ROW,COL LAYER,ROW,COL LAYER,ROW,COL LAYER,ROW,COL
 ----------------------------------------------------------------------
     0.4991E-01    0.2555E-01    0.1313E-01    0.6733E-02    0.3402E-02
  (  1,  2,  7) (  1,  2,  7) (  1,  2,  7) (  1,  2,  7) (  1,  2,  7)
     0.1807E-02    0.8917E-03    0.4437E-03    0.2215E-03    0.1106E-03
  (  1,  2,  7) (  1,  2,  7) (  1,  2,  7) (  1,  2,  7) (  1,  2,  7)


 NO OUTPUT CONTROL FOR STRESS PERIOD    7   TIME STEP   11
 
 SOLVING FOR HEAD 
    10 ITERATIONS FOR TIME STEP  12 IN STRESS PERIOD    7

 MAXIMUM HEAD CHANGE FOR EACH ITERATION:

    HEAD CHANGE   HEAD CHANGE   HEAD CHANGE   HEAD CHANGE   HEAD CHANGE
  LAYER,ROW,COL LAYER,ROW,COL LAYER,ROW,COL LAYER,ROW,COL LAYER,ROW,COL
 ----------------------------------------------------------------------
     0.5073E-01    0.2578E-01    0.1309E-01    0.6619E-02    0.3362E-02
  (  1,  2,  7) (  1,  2,  7) (  1,  2,  7) (  1,  2,  7) (  1,  2,  7)
     0.1764E-02    0.8629E-03    0.4634E-03    0.2382E-03    0.1206E-03
  (  1,  2,  7) (  1,  2,  7) (  1,  2,  7) (  1,  2,  7) (  1,  2,  7)


 NO OUTPUT CONTROL FOR STRESS PERIOD    7   TIME STEP   12
 
 SOLVING FOR HEAD 
     9 ITERATIONS FOR TIME STEP  13 IN STRESS PERIOD    7

 MAXIMUM HEAD CHANGE FOR EACH ITERATION:

    HEAD CHANGE   HEAD CHANGE   HEAD CHANGE   HEAD CHANGE   HEAD CHANGE
  LAYER,ROW,COL LAYER,ROW,COL LAYER,ROW,COL LAYER,ROW,COL LAYER,ROW,COL
 ----------------------------------------------------------------------
    -0.5123E-01    0.2316E-01    0.1159E-01    0.5756E-02    0.2911E-02
  (  1,  3,  6) (  1,  2,  7) (  1,  2,  7) (  1,  2,  7) (  1,  2,  7)
     0.1462E-02    0.6930E-03    0.3784E-03    0.1557E-03
  (  1,  2,  7) (  1,  2,  7) (  1,  2,  7) (  1,  2,  6)


 NO OUTPUT CONTROL FOR STRESS PERIOD    7   TIME STEP   13
 
 SOLVING FOR HEAD 
     9 ITERATIONS FOR TIME STEP  14 IN STRESS PERIOD    7

 MAXIMUM HEAD CHANGE FOR EACH ITERATION:

    HEAD CHANGE   HEAD CHANGE   HEAD CHANGE   HEAD CHANGE   HEAD CHANGE
  LAYER,ROW,COL LAYER,ROW,COL LAYER,ROW,COL LAYER,ROW,COL LAYER,ROW,COL
 ----------------------------------------------------------------------
    -0.5458E-01    0.2310E-01    0.1147E-01    0.5717E-02    0.2813E-02
  (  1,  3,  6) (  1,  2,  7) (  1,  2,  7) (  1,  2,  7) (  1,  2,  7)
     0.1354E-02    0.7098E-03    0.3179E-03    0.1516E-03
  (  1,  2,  7) (  1,  2,  7) (  1,  2,  7) (  1,  2,  7)


 NO OUTPUT CONTROL FOR STRESS PERIOD    7   TIME STEP   14
 
 SOLVING FOR HEAD 
     9 ITERATIONS FOR TIME STEP  15 IN STRESS PERIOD    7

 MAXIMUM HEAD CHANGE FOR EACH ITERATION:

    HEAD CHANGE   HEAD CHANGE   HEAD CHANGE   HEAD CHANGE   HEAD CHANGE
  LAYER,ROW,COL LAYER,ROW,COL LAYER,ROW,COL LAYER,ROW,COL LAYER,ROW,COL
 ----------------------------------------------------------------------
    -0.5673E-01   -0.2204E-01    0.1061E-01    0.5206E-02    0.2585E-02
  (  1,  3,  6) (  1,  3,  6) (  1,  2,  7) (  1,  2,  7) (  1,  2,  7)
     0.1289E-02    0.6431E-03    0.2260E-03    0.1419E-03
  (  1,  2,  7) (  1,  2,  7) (  1,  2,  7) (  1,  2,  7)


 OUTPUT CONTROL FOR STRESS PERIOD    7   TIME STEP   15
    PRINT BUDGET
    PRINT HEAD FOR ALL LAYERS
    SAVE HEAD FOR ALL LAYERS
    SAVE BUDGET

            WELLS   PERIOD    7   STEP  15
 WELL      1   LAYER   1   ROW     6   COL     4   RATE    -2.00000    
 WELL      2   LAYER   1   ROW     6   COL     5   RATE    -2.00000    
 WELL      3   LAYER   1   ROW     7   COL     4   RATE    -2.00000    
 WELL      4   LAYER   1   ROW     7   COL     5   RATE    -2.00000    
 WELL      5   LAYER   1   ROW     8   COL     4   RATE    -2.00000    
 WELL      6   LAYER   1   ROW     8   COL     5   RATE    -2.00000    
 WELL      7   LAYER   1   ROW     9   COL     4   RATE    -2.00000    
 WELL      8   LAYER   1   ROW     9   COL     5   RATE    -2.00000    
 WELL      9   LAYER   1   ROW    10   COL     4   RATE    -2.00000    
 WELL     10   LAYER   1   ROW    10   COL     5   RATE    -2.00000    

  HEAD DEP BOUNDS   PERIOD    7   STEP  15
 BOUNDARY      1   LAYER   1   ROW    13   COL     1   RATE   -0.263914    
 BOUNDARY      2   LAYER   1   ROW    14   COL     9   RATE    0.208960    



 STREAM LISTING     PERIOD      7   STEP       15

 LAYER ROW COL. STREAM  RCH.  FLOW INTO     FLOW TO   FLOW OUT OF   OVRLND.     DIRECT     STREAM       STREAM     STREAM     STREAM   STREAMBED  STREAMBED
                SEG.NO.  NO.  STRM. RCH.    AQUIFER    STRM. RCH.    RUNOFF     PRECIP       ET          HEAD       DEPTH      WIDTH   CONDCTNC.   GRADIENT

   1    1    1     1     1    2.5000E+01  1.0444E+00   2.3956E+01  0.000E+00  0.000E+00  0.000E+00  1.09422E+03  1.172E+00  1.296E+01  5.831E-01  5.970E-01
   1    2    2     1     2    2.3956E+01  3.0651E+00   2.0891E+01  0.000E+00  0.000E+00  0.000E+00  1.08920E+03  1.140E+00  1.253E+01  8.773E-01  1.165E+00
   1    3    3     1     3    2.0891E+01  2.9041E+00   1.7986E+01  0.000E+00  0.000E+00  0.000E+00  1.08351E+03  1.091E+00  1.183E+01  7.099E-01  1.364E+00
   1    3    4     1     4    1.7986E+01  2.4667E+00   1.5520E+01  0.000E+00  0.000E+00  0.000E+00  1.07845E+03  1.045E+00  1.099E+01  6.098E-01  1.348E+00
   1    4    5     2     1    5.5198E+00  2.6625E+00   2.8573E+00  0.000E+00  0.000E+00  0.000E+00  1.07235E+03  4.134E-01  1.200E+01  7.800E-01  1.138E+00
   1    5    6     2     2    2.8573E+00  1.9534E+00   9.0388E-01  0.000E+00  0.000E+00  0.000E+00  1.06677E+03  2.557E-01  1.200E+01  6.000E-01  1.085E+00
   1    6    6     2     3    9.0388E-01  9.0388E-01   0.0000E+00  0.000E+00  0.000E+00  0.000E+00  1.06183E+03  3.707E-02  1.200E+01  6.000E-01  1.012E+00
   1    7    6     2     4    0.0000E+00  0.0000E+00   0.0000E+00  0.000E+00  0.000E+00  0.000E+00  1.05708E+03  0.000E+00  1.200E+01  6.000E-01  1.000E+00
   1    8    6     2     5    0.0000E+00  0.0000E+00   0.0000E+00  0.000E+00  0.000E+00  0.000E+00  1.05236E+03  0.000E+00  1.200E+01  6.000E-01  1.000E+00
   1    3    5     3     1    1.0000E+01  2.7226E+00   7.2774E+00  0.000E+00  0.000E+00  0.000E+00  1.07555E+03  1.909E+00  9.636E+00  7.227E-01  1.884E+00
   1    3    6     3     2    7.2774E+00  1.4820E+00   5.7955E+00  0.000E+00  0.000E+00  0.000E+00  1.07264E+03  1.727E+00  8.909E+00  6.682E-01  1.109E+00
   1    3    7     3     3    5.7955E+00  6.2467E-01   5.1708E+00  0.000E+00  0.000E+00  0.000E+00  1.06987E+03  1.555E+00  8.218E+00  5.547E-01  5.630E-01
   1    4    8     3     4    5.1708E+00  1.5037E+00   3.6671E+00  0.000E+00  0.000E+00  0.000E+00  1.06682E+03  1.364E+00  7.455E+00  6.709E-01  1.121E+00
   1    5    8     3     5    3.6671E+00  1.5790E+00   2.0881E+00  0.000E+00  0.000E+00  0.000E+00  1.06362E+03  1.164E+00  6.655E+00  4.991E-01  1.582E+00
   1    6    8     3     6    2.0881E+00  5.5980E-01   1.5283E+00  0.000E+00  0.000E+00  0.000E+00  1.06158E+03  1.036E+00  6.145E+00  1.844E-01  1.518E+00
   1    5   10     4     1    1.0000E+01  9.0525E-01   9.0947E+00  0.000E+00  0.000E+00  0.000E+00  1.07835E+03  6.210E-01  1.000E+01  2.500E-01  1.207E+00
   1    5    9     4     2    9.0947E+00  1.7835E+00   7.3113E+00  0.000E+00  0.000E+00  0.000E+00  1.07148E+03  5.670E-01  1.000E+01  5.000E-01  1.189E+00
   1    6    8     4     3    7.3113E+00  1.2257E+00   6.0855E+00  0.000E+00  0.000E+00  0.000E+00  1.06368E+03  5.021E-01  1.000E+01  3.500E-01  1.167E+00
   1    6    8     5     1    7.6139E+00  9.9068E-01   6.6232E+00  0.000E+00  0.000E+00  0.000E+00  1.05860E+03  5.963E-01  1.234E+01  4.935E-01  6.692E-01
   1    7    7     5     2    6.6232E+00  1.9104E+00   4.7128E+00  0.000E+00  0.000E+00  0.000E+00  1.05405E+03  5.506E-01  1.076E+01  5.380E-01  1.184E+00
   1    8    7     5     3    4.7128E+00  1.0941E+00   3.6187E+00  0.000E+00  0.000E+00  0.000E+00  1.04974E+03  4.943E-01  8.946E+00  3.131E-01  1.165E+00
   1    8    6     5     4    3.6187E+00  6.6987E-01   2.9489E+00  0.000E+00  0.000E+00  0.000E+00  1.04670E+03  4.548E-01  7.756E+00  1.939E-01  1.152E+00
   1    9    6     6     1    2.9489E+00  1.9595E+00   9.8938E-01  0.000E+00  0.000E+00  0.000E+00  1.04299E+03  2.658E-01  1.200E+01  6.000E-01  1.089E+00
   1   10    7     6     2    9.8938E-01  9.8938E-01   0.0000E+00  0.000E+00  0.000E+00  0.000E+00  1.03820E+03  1.979E-02  1.200E+01  6.000E-01  1.007E+00
   1   11    7     6     3    0.0000E+00  0.0000E+00   0.0000E+00  0.000E+00  0.000E+00  0.000E+00  1.03364E+03  0.000E+00  1.200E+01  6.000E-01  1.000E+00
   1   12    7     6     4    0.0000E+00  0.0000E+00   0.0000E+00  0.000E+00  0.000E+00  0.000E+00  1.02909E+03  0.000E+00  1.200E+01  6.000E-01  2.840E-01
   1   13    7     6     5    0.0000E+00 -7.8520E-01   7.8520E-01  0.000E+00  0.000E+00  0.000E+00  1.02601E+03  1.010E-01  1.200E+01  2.400E-01 -1.091E+00
   1   14    9     7     1    1.5000E+02  2.0437E+00   1.4796E+02  0.000E+00  0.000E+00  0.000E+00  1.03987E+03  2.286E+00  5.529E+01  5.592E+00  1.218E-01
   1   13    8     7     2    1.4796E+02  2.9874E+00   1.4497E+02  0.000E+00  0.000E+00  0.000E+00  1.03477E+03  2.272E+00  5.523E+01  6.144E+00  1.621E-01
   1   13    7     7     3    1.4497E+02  2.2095E+00   1.4276E+02  0.000E+00  0.000E+00  0.000E+00  1.02968E+03  2.259E+00  5.516E+01  5.579E+00  1.320E-01
   1   13    6     8     1    1.4354E+02  5.6711E-01   1.4298E+02  0.000E+00  0.000E+00  0.000E+00  1.02464E+03  2.769E+00  4.015E+01  4.091E+00  4.621E-02
   1   13    5     8     2    1.4298E+02 -2.0420E+00   1.4502E+02  0.000E+00  0.000E+00  0.000E+00  1.01840E+03  2.774E+00  4.022E+01  4.099E+00 -1.661E-01
   1   13    4     8     3    1.4502E+02 -3.7569E+00   1.4878E+02  0.000E+00  0.000E+00  0.000E+00  1.01217E+03  2.795E+00  4.053E+01  4.130E+00 -3.032E-01
   1   13    3     8     4    1.4878E+02 -4.0389E+00   1.5282E+02  0.000E+00  0.000E+00  0.000E+00  1.00595E+03  2.822E+00  4.093E+01  4.170E+00 -3.228E-01
   1   13    2     8     5    1.5282E+02 -2.0785E+00   1.5489E+02  0.000E+00  0.000E+00  0.000E+00  9.99719E+02  2.844E+00  4.123E+01  4.202E+00 -1.649E-01
   1   13    1     8     6    1.5489E+02 -5.4945E-01   1.5544E+02  0.000E+00  0.000E+00  0.000E+00  9.94728E+02  2.853E+00  4.137E+01  2.529E+00 -7.241E-02



 UBDSV3 SAVING "           GW ET" ON UNIT  61 AT TIME STEP 15, STRESS PERIOD   7
 UBDSV3 SAVING "    UZF RECHARGE" ON UNIT  61 AT TIME STEP 15, STRESS PERIOD   7
 UBDSV3 SAVING " SURFACE LEAKAGE" ON UNIT  61 AT TIME STEP 15, STRESS PERIOD   7
 UBDSV3 SAVING "       HORT+DUNN" ON UNIT  61 AT TIME STEP 15, STRESS PERIOD   7
 UBDSV3 SAVING "  STORAGE CHANGE" ON UNIT  61 AT TIME STEP 15, STRESS PERIOD   7


UNSATURATED ZONE PACKAGE VOLUMETRIC BUDGET FOR  TIME STEP    15 STRESS PERIOD    7
  ------------------------------------------------------------------------------



     CUMULATIVE VOLUMES      L**3       RATES FOR THIS TIME STEP      L**3/T
     ------------------                 ------------------------

           IN:                                      IN:
           ---                                      ---
        INFILTRATION =  1269520998.1777          INFILTRATION =          25.4250

          OUT:                                     OUT:
          ----                                     ----
              UZF ET =  1438383890.5981                UZF ET =          69.1041
        UZF RECHARGE =   248597011.2581          UZF RECHARGE =           9.2152

            IN - OUT =  -417459903.6785              IN - OUT =         -52.8943

          STORAGE:                                 STORAGE:
          --------                                 --------
      STORAGE CHANGE =  -417259348.4563        STORAGE CHANGE =         -52.8828

 PERCENT DISCREPANCY IS DIFFERENCE BETWEEN IN-OUT MINUS CHANGE IN STORAGE
 DIVIDED BY THE AVERAGE OF IN AND OUT TIMES 100

 PERCENT DISCREPANCY =          -0.00     PERCENT DISCREPANCY =          -0.01






1
              HEAD IN LAYER   1 AT END OF TIME STEP  15 IN STRESS PERIOD    7
  ---------------------------------------------------------------------------

           1       2       3       4       5       6       7       8       9      10
 ...................................................................................
   1  1092.43 1088.67 6999.00 6999.00 6999.00 6999.00 6999.00 6999.00 6999.00 6999.00
   2  1089.11 1085.71 1079.22 6999.00 6999.00 1073.73 1072.67 1070.57 6999.00 6999.00
   3  6999.00 1077.41 1074.42 1070.33 1071.78 1070.42 1068.75 1068.14 6999.00 6999.00
   4  1067.84 1068.41 1066.75 1063.28 1062.19 1060.94 1061.70 1064.58 1063.84 6999.00
   5  1063.69 1061.33 1058.77 1056.80 1056.57 1057.25 1057.21 1059.39 1062.91 1065.35
   6  1059.01 1055.40 1052.34 1050.30 1050.68 1052.60 1054.06 1056.59 1059.41 1063.67
   7  1055.35 1049.74 1046.48 1044.62 1045.34 1047.63 1050.33 1052.77 1054.17 6999.00
   8  6999.00 1042.39 1040.42 1039.05 1040.04 1042.56 1044.62 1047.19 1049.16 6999.00
   9  6999.00 1035.45 1034.43 1033.71 1035.01 1037.68 1038.81 1040.72 1043.74 6999.00
  10  6999.00 1028.41 1028.47 1028.85 1030.44 1032.77 1034.39 1036.26 1040.01 1044.38
  11  6999.00 1019.65 1021.22 1024.55 1026.63 1028.85 1030.49 1032.83 1036.29 6999.00
  12  1001.19 1008.85 1014.05 1018.84 1022.49 1025.78 1028.24 1031.11 1034.88 6999.00
  13   994.95 1000.21 1006.92 1013.08 1018.90 1024.51 1029.28 1034.29 1036.41 6999.00
  14  6999.00 1005.83 1011.53 1016.25 1021.28 1026.05 1030.32 1035.30 1039.50 6999.00
  15  6999.00 6999.00 1018.84 1021.83 1025.57 1028.55 6999.00 6999.00 6999.00 6999.00

 HEAD WILL BE SAVED ON UNIT   58 AT END OF TIME STEP   15, STRESS PERIOD    7
1
  VOLUMETRIC BUDGET FOR ENTIRE MODEL AT END OF TIME STEP   15, STRESS PERIOD   7
  ------------------------------------------------------------------------------

     CUMULATIVE VOLUMES      L**3       RATES FOR THIS TIME STEP      L**3/T
     ------------------                 ------------------------

           IN:                                      IN:
           ---                                      ---
             STORAGE =    67341144.0000               STORAGE =           5.4704
       CONSTANT HEAD =           0.0000         CONSTANT HEAD =           0.0000
               WELLS =           0.0000                 WELLS =           0.0000
     HEAD DEP BOUNDS =     3842417.7500       HEAD DEP BOUNDS =           0.2090
      STREAM LEAKAGE =   793528832.0000        STREAM LEAKAGE =          42.8077
        UZF RECHARGE =   248597056.0000          UZF RECHARGE =           9.2152
               GW ET =           0.0000                 GW ET =           0.0000
     SURFACE LEAKAGE =           0.0000       SURFACE LEAKAGE =           0.0000

            TOTAL IN =  1113309440.0000              TOTAL IN =          57.7024

          OUT:                                     OUT:
          ----                                     ----
             STORAGE =   261176896.0000               STORAGE =           6.1481
       CONSTANT HEAD =           0.0000         CONSTANT HEAD =           0.0000
               WELLS =   289079936.0000                 WELLS =          20.0000
     HEAD DEP BOUNDS =     4847496.5000       HEAD DEP BOUNDS =           0.2639
      STREAM LEAKAGE =   247993712.0000        STREAM LEAKAGE =          13.2510
        UZF RECHARGE =           0.0000          UZF RECHARGE =           0.0000
               GW ET =   310111392.0000                 GW ET =          18.0647
     SURFACE LEAKAGE =           0.0000       SURFACE LEAKAGE =           0.0000

           TOTAL OUT =  1113209472.0000             TOTAL OUT =          57.7277

            IN - OUT =       99968.0000              IN - OUT =      -2.5360E-02

 PERCENT DISCREPANCY =           0.01     PERCENT DISCREPANCY =          -0.04






         TIME SUMMARY AT END OF TIME STEP   15 IN STRESS PERIOD    7
                    SECONDS     MINUTES      HOURS       DAYS        YEARS
                    -----------------------------------------------------------
   TIME STEP LENGTH 3.14103E+05  5235.0      87.251      3.6354     9.95332E-03
 STRESS PERIOD TIME 2.62800E+06  43800.      730.00      30.417     8.32763E-02
         TOTAL TIME 1.83960E+07 3.06600E+05  5110.0      212.92     0.58293    
1
1
                            STRESS PERIOD NO.    8, LENGTH =   2628000.    
                            -----------------------------------------------

                              NUMBER OF TIME STEPS =    15

                               MULTIPLIER FOR DELT =     1.100

                            INITIAL TIME STEP SIZE =   82713.07    

      0 WELLS

 REUSING NON-PARAMETER GHB CELLS FROM LAST STRESS PERIOD

      2 GHB CELLS

 REUSING STREAM SEGMENT DATA FROM LAST STRESS PERIOD



            AREAL INFILTRATION RATE
 READING ON UNIT   19 WITH FORMAT: (10F4.0)            

            1           2           3           4           5           6           7           8           9          10
 ........................................................................................................................
   1   5.0000E-09  1.0000E-08   0.000       0.000       0.000       0.000       0.000       0.000       0.000       0.000    
   2   1.0000E-08  5.0000E-09  1.0000E-08   0.000       0.000      4.0000E-08  4.0000E-08  2.5000E-08   0.000       0.000    
   3    0.000      2.5000E-08  5.0000E-09  5.0000E-09  4.0000E-08  4.0000E-08  2.5000E-08  2.5000E-08   0.000       0.000    
   4   4.0000E-08  2.5000E-08  5.0000E-09  5.0000E-09  5.0000E-09  5.0000E-09  5.0000E-09  5.0000E-09  1.0000E-08   0.000    
   5   4.0000E-08  2.5000E-08  5.0000E-09  5.0000E-09  5.0000E-09  5.0000E-09  5.0000E-09  5.0000E-09  5.0000E-09  5.0000E-09
   6   4.0000E-08  2.5000E-08  2.5000E-08  1.0000E-08  1.0000E-08  5.0000E-09  5.0000E-09  5.0000E-09  5.0000E-09  2.5000E-08
   7   4.0000E-08  2.5000E-08  2.5000E-08  1.0000E-08  1.0000E-08  5.0000E-09  5.0000E-09  1.0000E-08  1.0000E-08   0.000    
   8    0.000      2.5000E-08  2.5000E-08  1.0000E-08  1.0000E-08  5.0000E-09  5.0000E-09  1.0000E-08  2.5000E-08   0.000    
   9    0.000      2.5000E-08  2.5000E-08  1.0000E-08  1.0000E-08  5.0000E-09  5.0000E-09  1.0000E-08  2.5000E-08   0.000    
  10    0.000      2.5000E-08  2.5000E-08  1.0000E-08  1.0000E-08  5.0000E-09  5.0000E-09  1.0000E-08  2.5000E-08  4.0000E-08
  11    0.000      5.0000E-09  5.0000E-09  5.0000E-09  5.0000E-09  5.0000E-09  5.0000E-09  1.0000E-08  2.5000E-08   0.000    
  12   5.0000E-09  5.0000E-09  5.0000E-09  5.0000E-09  5.0000E-09  5.0000E-09  5.0000E-09  5.0000E-09  1.0000E-08   0.000    
  13   5.0000E-09  5.0000E-09  1.0000E-08  1.0000E-08  1.0000E-08  1.0000E-08  1.0000E-08  5.0000E-09  5.0000E-09   0.000    
  14    0.000      1.0000E-08  2.5000E-08  2.5000E-08  2.5000E-08  2.5000E-08  2.5000E-08  1.0000E-08  5.0000E-09   0.000    
  15    0.000       0.000      4.0000E-08  4.0000E-08  4.0000E-08  4.0000E-08   0.000       0.000       0.000       0.000    

USING ET RATE FROM PREVIOUS STRESS PERIOD. CURRENT PERIOD IS:       8

 USING ET EXTINCTION DEPTH FROM PREVIOUS STRESS PERIOD. CURRENT PERIOD IS:       8

 USING EXTINCTION WATER CONTENT FROM PREVIOUS STRESS PERIOD. CURRENT PERIOD IS:       8
 
 SOLVING FOR HEAD 

     7 ITERATIONS FOR TIME STEP   1 IN STRESS PERIOD    8

 MAXIMUM HEAD CHANGE FOR EACH ITERATION:

    HEAD CHANGE   HEAD CHANGE   HEAD CHANGE   HEAD CHANGE   HEAD CHANGE
  LAYER,ROW,COL LAYER,ROW,COL LAYER,ROW,COL LAYER,ROW,COL LAYER,ROW,COL
 ----------------------------------------------------------------------
     0.2270E-01   -0.5864E-02   -0.2470E-02    0.1136E-02    0.5359E-03
  (  1,  6,  5) (  1,  3,  5) (  1,  3,  5) (  1,  2,  7) (  1,  2,  7)
     0.2614E-03   -0.1155E-03
  (  1,  2,  7) (  1,  3,  5)


 NO OUTPUT CONTROL FOR STRESS PERIOD    8   TIME STEP    1
 
 SOLVING FOR HEAD 
     7 ITERATIONS FOR TIME STEP   2 IN STRESS PERIOD    8

 MAXIMUM HEAD CHANGE FOR EACH ITERATION:

    HEAD CHANGE   HEAD CHANGE   HEAD CHANGE   HEAD CHANGE   HEAD CHANGE
  LAYER,ROW,COL LAYER,ROW,COL LAYER,ROW,COL LAYER,ROW,COL LAYER,ROW,COL
 ----------------------------------------------------------------------
     0.2425E-01    0.6768E-02    0.2490E-02    0.1177E-02    0.5749E-03
  (  1,  6,  5) (  1,  8,  4) (  1,  2,  7) (  1,  2,  7) (  1,  2,  7)
     0.2847E-03    0.1701E-03
  (  1,  2,  7) (  1,  2,  7)


 NO OUTPUT CONTROL FOR STRESS PERIOD    8   TIME STEP    2
 
 SOLVING FOR HEAD 
     7 ITERATIONS FOR TIME STEP   3 IN STRESS PERIOD    8

 MAXIMUM HEAD CHANGE FOR EACH ITERATION:

    HEAD CHANGE   HEAD CHANGE   HEAD CHANGE   HEAD CHANGE   HEAD CHANGE
  LAYER,ROW,COL LAYER,ROW,COL LAYER,ROW,COL LAYER,ROW,COL LAYER,ROW,COL
 ----------------------------------------------------------------------
     0.2686E-01    0.8962E-02    0.2977E-02    0.1257E-02    0.5626E-03
  (  1,  8,  5) (  1,  8,  4) (  1,  8,  4) (  1,  2,  7) (  1,  2,  7)
     0.2993E-03    0.1219E-03
  (  1,  2,  7) (  1,  2,  7)


 NO OUTPUT CONTROL FOR STRESS PERIOD    8   TIME STEP    3
 
 SOLVING FOR HEAD 
     7 ITERATIONS FOR TIME STEP   4 IN STRESS PERIOD    8

 MAXIMUM HEAD CHANGE FOR EACH ITERATION:

    HEAD CHANGE   HEAD CHANGE   HEAD CHANGE   HEAD CHANGE   HEAD CHANGE
  LAYER,ROW,COL LAYER,ROW,COL LAYER,ROW,COL LAYER,ROW,COL LAYER,ROW,COL
 ----------------------------------------------------------------------
     0.2924E-01    0.9764E-02    0.3322E-02    0.1305E-02    0.6030E-03
  (  1,  8,  4) (  1,  8,  4) (  1,  8,  4) (  1,  2,  7) (  1,  2,  7)
     0.3258E-03    0.1334E-03
  (  1,  2,  7) (  1,  2,  7)


 NO OUTPUT CONTROL FOR STRESS PERIOD    8   TIME STEP    4
 
 SOLVING FOR HEAD 
     7 ITERATIONS FOR TIME STEP   5 IN STRESS PERIOD    8

 MAXIMUM HEAD CHANGE FOR EACH ITERATION:

    HEAD CHANGE   HEAD CHANGE   HEAD CHANGE   HEAD CHANGE   HEAD CHANGE
  LAYER,ROW,COL LAYER,ROW,COL LAYER,ROW,COL LAYER,ROW,COL LAYER,ROW,COL
 ----------------------------------------------------------------------
     0.3194E-01    0.1069E-01    0.3570E-02    0.1314E-02    0.6387E-03
  (  1,  8,  4) (  1,  8,  4) (  1,  8,  4) (  1,  2,  7) (  1,  2,  7)
     0.2782E-03    0.1309E-03
  (  1,  2,  7) (  1,  2,  7)


 OUTPUT CONTROL FOR STRESS PERIOD    8   TIME STEP    5
    PRINT BUDGET
    SAVE BUDGET

  HEAD DEP BOUNDS   PERIOD    8   STEP   5
 BOUNDARY      1   LAYER   1   ROW    13   COL     1   RATE   -0.264117    
 BOUNDARY      2   LAYER   1   ROW    14   COL     9   RATE    0.208949    



 STREAM LISTING     PERIOD      8   STEP        5

 LAYER ROW COL. STREAM  RCH.  FLOW INTO     FLOW TO   FLOW OUT OF   OVRLND.     DIRECT     STREAM       STREAM     STREAM     STREAM   STREAMBED  STREAMBED
                SEG.NO.  NO.  STRM. RCH.    AQUIFER    STRM. RCH.    RUNOFF     PRECIP       ET          HEAD       DEPTH      WIDTH   CONDCTNC.   GRADIENT

   1    1    1     1     1    2.5000E+01  1.0463E+00   2.3954E+01  0.000E+00  0.000E+00  0.000E+00  1.09422E+03  1.172E+00  1.296E+01  5.831E-01  5.981E-01
   1    2    2     1     2    2.3954E+01  3.0652E+00   2.0889E+01  0.000E+00  0.000E+00  0.000E+00  1.08920E+03  1.140E+00  1.253E+01  8.773E-01  1.165E+00
   1    3    3     1     3    2.0889E+01  2.9039E+00   1.7985E+01  0.000E+00  0.000E+00  0.000E+00  1.08351E+03  1.091E+00  1.183E+01  7.098E-01  1.364E+00
   1    3    4     1     4    1.7985E+01  2.4666E+00   1.5518E+01  0.000E+00  0.000E+00  0.000E+00  1.07845E+03  1.045E+00  1.099E+01  6.098E-01  1.348E+00
   1    4    5     2     1    5.5181E+00  2.6624E+00   2.8557E+00  0.000E+00  0.000E+00  0.000E+00  1.07235E+03  4.133E-01  1.200E+01  7.800E-01  1.138E+00
   1    5    6     2     2    2.8557E+00  1.9533E+00   9.0233E-01  0.000E+00  0.000E+00  0.000E+00  1.06677E+03  2.556E-01  1.200E+01  6.000E-01  1.085E+00
   1    6    6     2     3    9.0233E-01  9.0233E-01   0.0000E+00  0.000E+00  0.000E+00  0.000E+00  1.06183E+03  3.703E-02  1.200E+01  6.000E-01  1.012E+00
   1    7    6     2     4    0.0000E+00  0.0000E+00   0.0000E+00  0.000E+00  0.000E+00  0.000E+00  1.05708E+03  0.000E+00  1.200E+01  6.000E-01  1.000E+00
   1    8    6     2     5    0.0000E+00  0.0000E+00   0.0000E+00  0.000E+00  0.000E+00  0.000E+00  1.05236E+03  0.000E+00  1.200E+01  6.000E-01  1.000E+00
   1    3    5     3     1    1.0000E+01  2.8178E+00   7.1822E+00  0.000E+00  0.000E+00  0.000E+00  1.07555E+03  1.909E+00  9.636E+00  7.227E-01  1.949E+00
   1    3    6     3     2    7.1822E+00  1.5736E+00   5.6087E+00  0.000E+00  0.000E+00  0.000E+00  1.07264E+03  1.727E+00  8.909E+00  6.682E-01  1.177E+00
   1    3    7     3     3    5.6087E+00  6.7539E-01   4.9333E+00  0.000E+00  0.000E+00  0.000E+00  1.06987E+03  1.555E+00  8.218E+00  5.547E-01  6.088E-01
   1    4    8     3     4    4.9333E+00  1.5078E+00   3.4255E+00  0.000E+00  0.000E+00  0.000E+00  1.06682E+03  1.364E+00  7.455E+00  6.709E-01  1.124E+00
   1    5    8     3     5    3.4255E+00  1.5790E+00   1.8465E+00  0.000E+00  0.000E+00  0.000E+00  1.06362E+03  1.164E+00  6.655E+00  4.991E-01  1.582E+00
   1    6    8     3     6    1.8465E+00  5.5980E-01   1.2867E+00  0.000E+00  0.000E+00  0.000E+00  1.06158E+03  1.036E+00  6.145E+00  1.844E-01  1.518E+00
   1    5   10     4     1    1.0000E+01  9.0525E-01   9.0947E+00  0.000E+00  0.000E+00  0.000E+00  1.07835E+03  6.210E-01  1.000E+01  2.500E-01  1.207E+00
   1    5    9     4     2    9.0947E+00  1.7835E+00   7.3113E+00  0.000E+00  0.000E+00  0.000E+00  1.07148E+03  5.670E-01  1.000E+01  5.000E-01  1.189E+00
   1    6    8     4     3    7.3113E+00  1.2257E+00   6.0855E+00  0.000E+00  0.000E+00  0.000E+00  1.06368E+03  5.021E-01  1.000E+01  3.500E-01  1.167E+00
   1    6    8     5     1    7.3723E+00  9.6542E-01   6.4068E+00  0.000E+00  0.000E+00  0.000E+00  1.05859E+03  5.895E-01  1.210E+01  4.839E-01  6.650E-01
   1    7    7     5     2    6.4068E+00  1.8672E+00   4.5396E+00  0.000E+00  0.000E+00  0.000E+00  1.05404E+03  5.439E-01  1.054E+01  5.269E-01  1.181E+00
   1    8    7     5     3    4.5396E+00  1.0667E+00   3.4729E+00  0.000E+00  0.000E+00  0.000E+00  1.04974E+03  4.876E-01  8.739E+00  3.059E-01  1.163E+00
   1    8    6     5     4    3.4729E+00  6.5173E-01   2.8212E+00  0.000E+00  0.000E+00  0.000E+00  1.04670E+03  4.481E-01  7.560E+00  1.890E-01  1.149E+00
   1    9    6     6     1    2.8212E+00  1.9533E+00   8.6787E-01  0.000E+00  0.000E+00  0.000E+00  1.04298E+03  2.556E-01  1.200E+01  6.000E-01  1.085E+00
   1   10    7     6     2    8.6787E-01  8.6787E-01   0.0000E+00  0.000E+00  0.000E+00  0.000E+00  1.03822E+03  3.658E-02  1.200E+01  6.000E-01  1.012E+00
   1   11    7     6     3    0.0000E+00  0.0000E+00   0.0000E+00  0.000E+00  0.000E+00  0.000E+00  1.03364E+03  0.000E+00  1.200E+01  6.000E-01  1.000E+00
   1   12    7     6     4    0.0000E+00  0.0000E+00   0.0000E+00  0.000E+00  0.000E+00  0.000E+00  1.02909E+03  0.000E+00  1.200E+01  6.000E-01  2.825E-01
   1   13    7     6     5    0.0000E+00 -7.8381E-01   7.8381E-01  0.000E+00  0.000E+00  0.000E+00  1.02601E+03  1.009E-01  1.200E+01  2.400E-01 -1.089E+00
   1   14    9     7     1    1.5000E+02  2.0421E+00   1.4796E+02  0.000E+00  0.000E+00  0.000E+00  1.03987E+03  2.286E+00  5.529E+01  5.592E+00  1.217E-01
   1   13    8     7     2    1.4796E+02  2.9854E+00   1.4497E+02  0.000E+00  0.000E+00  0.000E+00  1.03477E+03  2.272E+00  5.523E+01  6.144E+00  1.620E-01
   1   13    7     7     3    1.4497E+02  2.2422E+00   1.4273E+02  0.000E+00  0.000E+00  0.000E+00  1.02968E+03  2.258E+00  5.516E+01  5.579E+00  1.340E-01
   1   13    6     8     1    1.4351E+02  6.0146E-01   1.4291E+02  0.000E+00  0.000E+00  0.000E+00  1.02464E+03  2.768E+00  4.014E+01  4.091E+00  4.901E-02
   1   13    5     8     2    1.4291E+02 -2.0318E+00   1.4494E+02  0.000E+00  0.000E+00  0.000E+00  1.01840E+03  2.774E+00  4.022E+01  4.098E+00 -1.653E-01
   1   13    4     8     3    1.4494E+02 -3.7483E+00   1.4869E+02  0.000E+00  0.000E+00  0.000E+00  1.01217E+03  2.794E+00  4.052E+01  4.129E+00 -3.026E-01
   1   13    3     8     4    1.4869E+02 -4.0259E+00   1.5272E+02  0.000E+00  0.000E+00  0.000E+00  1.00595E+03  2.822E+00  4.092E+01  4.169E+00 -3.219E-01
   1   13    2     8     5    1.5272E+02 -2.0786E+00   1.5480E+02  0.000E+00  0.000E+00  0.000E+00  9.99718E+02  2.843E+00  4.122E+01  4.201E+00 -1.649E-01
   1   13    1     8     6    1.5480E+02 -5.6442E-01   1.5536E+02  0.000E+00  0.000E+00  0.000E+00  9.94727E+02  2.852E+00  4.136E+01  2.529E+00 -7.440E-02



 UBDSV3 SAVING "           GW ET" ON UNIT  61 AT TIME STEP  5, STRESS PERIOD   8
 UBDSV3 SAVING "    UZF RECHARGE" ON UNIT  61 AT TIME STEP  5, STRESS PERIOD   8
 UBDSV3 SAVING " SURFACE LEAKAGE" ON UNIT  61 AT TIME STEP  5, STRESS PERIOD   8
 UBDSV3 SAVING "       HORT+DUNN" ON UNIT  61 AT TIME STEP  5, STRESS PERIOD   8
 UBDSV3 SAVING "  STORAGE CHANGE" ON UNIT  61 AT TIME STEP  5, STRESS PERIOD   8


UNSATURATED ZONE PACKAGE VOLUMETRIC BUDGET FOR  TIME STEP     5 STRESS PERIOD    8
  ------------------------------------------------------------------------------



     CUMULATIVE VOLUMES      L**3       RATES FOR THIS TIME STEP      L**3/T
     ------------------                 ------------------------

           IN:                                      IN:
           ---                                      ---
        INFILTRATION =  1290919169.0557          INFILTRATION =          42.3750

          OUT:                                     OUT:
          ----                                     ----
              UZF ET =  1473123975.3782                UZF ET =          68.6435
        UZF RECHARGE =   254097801.5056          UZF RECHARGE =          11.9967

            IN - OUT =  -436302607.8282              IN - OUT =         -38.2652

          STORAGE:                                 STORAGE:
          --------                                 --------
      STORAGE CHANGE =  -436102007.5502        STORAGE CHANGE =         -38.2651

 PERCENT DISCREPANCY IS DIFFERENCE BETWEEN IN-OUT MINUS CHANGE IN STORAGE
 DIVIDED BY THE AVERAGE OF IN AND OUT TIMES 100

 PERCENT DISCREPANCY =          -0.00     PERCENT DISCREPANCY =          -0.00






1
  VOLUMETRIC BUDGET FOR ENTIRE MODEL AT END OF TIME STEP    5, STRESS PERIOD   8
  ------------------------------------------------------------------------------

     CUMULATIVE VOLUMES      L**3       RATES FOR THIS TIME STEP      L**3/T
     ------------------                 ------------------------

           IN:                                      IN:
           ---                                      ---
             STORAGE =    68564272.0000               STORAGE =           2.3348
       CONSTANT HEAD =           0.0000         CONSTANT HEAD =           0.0000
               WELLS =           0.0000                 WELLS =           0.0000
     HEAD DEP BOUNDS =     3947931.2500       HEAD DEP BOUNDS =           0.2089
      STREAM LEAKAGE =   815163648.0000        STREAM LEAKAGE =          42.8712
        UZF RECHARGE =   254097840.0000          UZF RECHARGE =          11.9967
               GW ET =           0.0000                 GW ET =           0.0000
     SURFACE LEAKAGE =           0.0000       SURFACE LEAKAGE =           0.0000

            TOTAL IN =  1141773696.0000              TOTAL IN =          57.4117

          OUT:                                     OUT:
          ----                                     ----
             STORAGE =   273694912.0000               STORAGE =          25.8141
       CONSTANT HEAD =           0.0000         CONSTANT HEAD =           0.0000
               WELLS =   289079936.0000                 WELLS =           0.0000
     HEAD DEP BOUNDS =     4980831.5000       HEAD DEP BOUNDS =           0.2641
      STREAM LEAKAGE =   254678880.0000        STREAM LEAKAGE =          13.2328
        UZF RECHARGE =           0.0000          UZF RECHARGE =           0.0000
               GW ET =   319241248.0000                 GW ET =          18.0881
     SURFACE LEAKAGE =           0.0000       SURFACE LEAKAGE =           0.0000

           TOTAL OUT =  1141675776.0000             TOTAL OUT =          57.3991

            IN - OUT =       97920.0000              IN - OUT =       1.2589E-02

 PERCENT DISCREPANCY =           0.01     PERCENT DISCREPANCY =           0.02






         TIME SUMMARY AT END OF TIME STEP    5 IN STRESS PERIOD    8
                    SECONDS     MINUTES      HOURS       DAYS        YEARS
                    -----------------------------------------------------------
   TIME STEP LENGTH 1.21100E+05  2018.3      33.639      1.4016     3.83743E-03
 STRESS PERIOD TIME 5.04972E+05  8416.2      140.27      5.8446     1.60016E-02
         TOTAL TIME 1.89010E+07 3.15016E+05  5250.3      218.76     0.59894    
1
 
 SOLVING FOR HEAD 
     7 ITERATIONS FOR TIME STEP   6 IN STRESS PERIOD    8

 MAXIMUM HEAD CHANGE FOR EACH ITERATION:

    HEAD CHANGE   HEAD CHANGE   HEAD CHANGE   HEAD CHANGE   HEAD CHANGE
  LAYER,ROW,COL LAYER,ROW,COL LAYER,ROW,COL LAYER,ROW,COL LAYER,ROW,COL
 ----------------------------------------------------------------------
     0.3484E-01    0.1170E-01    0.3914E-02    0.1352E-02    0.6760E-03
  (  1,  8,  4) (  1,  8,  4) (  1,  8,  4) (  1,  7,  4) (  1,  2,  7)
     0.3003E-03    0.1428E-03
  (  1,  2,  7) (  1,  2,  7)


 NO OUTPUT CONTROL FOR STRESS PERIOD    8   TIME STEP    6
 
 SOLVING FOR HEAD 
     7 ITERATIONS FOR TIME STEP   7 IN STRESS PERIOD    8

 MAXIMUM HEAD CHANGE FOR EACH ITERATION:

    HEAD CHANGE   HEAD CHANGE   HEAD CHANGE   HEAD CHANGE   HEAD CHANGE
  LAYER,ROW,COL LAYER,ROW,COL LAYER,ROW,COL LAYER,ROW,COL LAYER,ROW,COL
 ----------------------------------------------------------------------
     0.3806E-01    0.1273E-01    0.4274E-02    0.1406E-02    0.6447E-03
  (  1,  8,  4) (  1,  8,  4) (  1,  8,  4) (  1,  2,  7) (  1,  2,  7)
     0.3112E-03    0.1532E-03
  (  1,  2,  7) (  1,  2,  7)


 NO OUTPUT CONTROL FOR STRESS PERIOD    8   TIME STEP    7
 
 SOLVING FOR HEAD 
     7 ITERATIONS FOR TIME STEP   8 IN STRESS PERIOD    8

 MAXIMUM HEAD CHANGE FOR EACH ITERATION:

    HEAD CHANGE   HEAD CHANGE   HEAD CHANGE   HEAD CHANGE   HEAD CHANGE
  LAYER,ROW,COL LAYER,ROW,COL LAYER,ROW,COL LAYER,ROW,COL LAYER,ROW,COL
 ----------------------------------------------------------------------
     0.4136E-01    0.1384E-01    0.4619E-02    0.1573E-02    0.6809E-03
  (  1,  8,  4) (  1,  8,  4) (  1,  8,  4) (  1,  8,  4) (  1,  2,  7)
     0.3352E-03    0.1674E-03
  (  1,  2,  7) (  1,  2,  7)


 NO OUTPUT CONTROL FOR STRESS PERIOD    8   TIME STEP    8
 
 SOLVING FOR HEAD 
     7 ITERATIONS FOR TIME STEP   9 IN STRESS PERIOD    8

 MAXIMUM HEAD CHANGE FOR EACH ITERATION:

    HEAD CHANGE   HEAD CHANGE   HEAD CHANGE   HEAD CHANGE   HEAD CHANGE
  LAYER,ROW,COL LAYER,ROW,COL LAYER,ROW,COL LAYER,ROW,COL LAYER,ROW,COL
 ----------------------------------------------------------------------
     0.4502E-01    0.1507E-01    0.5049E-02    0.1670E-02    0.5617E-03
  (  1,  8,  4) (  1,  8,  4) (  1,  8,  4) (  1,  8,  4) (  1,  2,  6)
     0.2683E-03    0.1548E-03
  (  1,  2,  7) (  1,  2,  6)


 NO OUTPUT CONTROL FOR STRESS PERIOD    8   TIME STEP    9
 
 SOLVING FOR HEAD 
     7 ITERATIONS FOR TIME STEP  10 IN STRESS PERIOD    8

 MAXIMUM HEAD CHANGE FOR EACH ITERATION:

    HEAD CHANGE   HEAD CHANGE   HEAD CHANGE   HEAD CHANGE   HEAD CHANGE
  LAYER,ROW,COL LAYER,ROW,COL LAYER,ROW,COL LAYER,ROW,COL LAYER,ROW,COL
 ----------------------------------------------------------------------
     0.4888E-01    0.1633E-01    0.5496E-02    0.1825E-02    0.6053E-03
  (  1,  8,  4) (  1,  8,  4) (  1,  8,  4) (  1,  8,  4) (  1,  8,  4)
     0.2349E-03    0.1058E-03
  (  1,  9,  4) (  1,  2,  7)


 OUTPUT CONTROL FOR STRESS PERIOD    8   TIME STEP   10
    PRINT BUDGET
    SAVE BUDGET

  HEAD DEP BOUNDS   PERIOD    8   STEP  10
 BOUNDARY      1   LAYER   1   ROW    13   COL     1   RATE   -0.264127    
 BOUNDARY      2   LAYER   1   ROW    14   COL     9   RATE    0.208940    



 STREAM LISTING     PERIOD      8   STEP       10

 LAYER ROW COL. STREAM  RCH.  FLOW INTO     FLOW TO   FLOW OUT OF   OVRLND.     DIRECT     STREAM       STREAM     STREAM     STREAM   STREAMBED  STREAMBED
                SEG.NO.  NO.  STRM. RCH.    AQUIFER    STRM. RCH.    RUNOFF     PRECIP       ET          HEAD       DEPTH      WIDTH   CONDCTNC.   GRADIENT

   1    1    1     1     1    2.5000E+01  1.0490E+00   2.3951E+01  0.000E+00  0.000E+00  0.000E+00  1.09422E+03  1.172E+00  1.296E+01  5.831E-01  5.997E-01
   1    2    2     1     2    2.3951E+01  3.0652E+00   2.0886E+01  0.000E+00  0.000E+00  0.000E+00  1.08920E+03  1.140E+00  1.253E+01  8.773E-01  1.165E+00
   1    3    3     1     3    2.0886E+01  2.9037E+00   1.7982E+01  0.000E+00  0.000E+00  0.000E+00  1.08351E+03  1.091E+00  1.183E+01  7.098E-01  1.364E+00
   1    3    4     1     4    1.7982E+01  2.4664E+00   1.5516E+01  0.000E+00  0.000E+00  0.000E+00  1.07845E+03  1.045E+00  1.099E+01  6.097E-01  1.348E+00
   1    4    5     2     1    5.5157E+00  2.6623E+00   2.8534E+00  0.000E+00  0.000E+00  0.000E+00  1.07235E+03  4.132E-01  1.200E+01  7.800E-01  1.138E+00
   1    5    6     2     2    2.8534E+00  1.9532E+00   9.0021E-01  0.000E+00  0.000E+00  0.000E+00  1.06676E+03  2.554E-01  1.200E+01  6.000E-01  1.085E+00
   1    6    6     2     3    9.0021E-01  9.0021E-01   0.0000E+00  0.000E+00  0.000E+00  0.000E+00  1.06183E+03  3.698E-02  1.200E+01  6.000E-01  1.012E+00
   1    7    6     2     4    0.0000E+00  0.0000E+00   0.0000E+00  0.000E+00  0.000E+00  0.000E+00  1.05708E+03  0.000E+00  1.200E+01  6.000E-01  1.000E+00
   1    8    6     2     5    0.0000E+00  0.0000E+00   0.0000E+00  0.000E+00  0.000E+00  0.000E+00  1.05236E+03  0.000E+00  1.200E+01  6.000E-01  1.000E+00
   1    3    5     3     1    1.0000E+01  2.8252E+00   7.1748E+00  0.000E+00  0.000E+00  0.000E+00  1.07555E+03  1.909E+00  9.636E+00  7.227E-01  1.955E+00
   1    3    6     3     2    7.1748E+00  1.6809E+00   5.4939E+00  0.000E+00  0.000E+00  0.000E+00  1.07264E+03  1.727E+00  8.909E+00  6.682E-01  1.258E+00
   1    3    7     3     3    5.4939E+00  7.4109E-01   4.7528E+00  0.000E+00  0.000E+00  0.000E+00  1.06987E+03  1.555E+00  8.218E+00  5.547E-01  6.680E-01
   1    4    8     3     4    4.7528E+00  1.5173E+00   3.2355E+00  0.000E+00  0.000E+00  0.000E+00  1.06682E+03  1.364E+00  7.455E+00  6.709E-01  1.131E+00
   1    5    8     3     5    3.2355E+00  1.5790E+00   1.6565E+00  0.000E+00  0.000E+00  0.000E+00  1.06362E+03  1.164E+00  6.655E+00  4.991E-01  1.582E+00
   1    6    8     3     6    1.6565E+00  5.5980E-01   1.0967E+00  0.000E+00  0.000E+00  0.000E+00  1.06158E+03  1.036E+00  6.145E+00  1.844E-01  1.518E+00
   1    5   10     4     1    1.0000E+01  9.0525E-01   9.0947E+00  0.000E+00  0.000E+00  0.000E+00  1.07835E+03  6.210E-01  1.000E+01  2.500E-01  1.207E+00
   1    5    9     4     2    9.0947E+00  1.7835E+00   7.3113E+00  0.000E+00  0.000E+00  0.000E+00  1.07148E+03  5.670E-01  1.000E+01  5.000E-01  1.189E+00
   1    6    8     4     3    7.3113E+00  1.2257E+00   6.0855E+00  0.000E+00  0.000E+00  0.000E+00  1.06368E+03  5.021E-01  1.000E+01  3.500E-01  1.167E+00
   1    6    8     5     1    7.1823E+00  9.4384E-01   6.2384E+00  0.000E+00  0.000E+00  0.000E+00  1.05858E+03  5.841E-01  1.191E+01  4.763E-01  6.605E-01
   1    7    7     5     2    6.2384E+00  1.8333E+00   4.4052E+00  0.000E+00  0.000E+00  0.000E+00  1.05404E+03  5.386E-01  1.036E+01  5.181E-01  1.180E+00
   1    8    7     5     3    4.4052E+00  1.0452E+00   3.3600E+00  0.000E+00  0.000E+00  0.000E+00  1.04973E+03  4.823E-01  8.576E+00  3.001E-01  1.161E+00
   1    8    6     5     4    3.3600E+00  6.3749E-01   2.7225E+00  0.000E+00  0.000E+00  0.000E+00  1.04669E+03  4.428E-01  7.407E+00  1.852E-01  1.148E+00
   1    9    6     6     1    2.7225E+00  1.9485E+00   7.7401E-01  0.000E+00  0.000E+00  0.000E+00  1.04297E+03  2.475E-01  1.200E+01  6.000E-01  1.082E+00
   1   10    7     6     2    7.7401E-01  7.7401E-01   0.0000E+00  0.000E+00  0.000E+00  0.000E+00  1.03822E+03  3.415E-02  1.200E+01  6.000E-01  1.011E+00
   1   11    7     6     3    0.0000E+00  0.0000E+00   0.0000E+00  0.000E+00  0.000E+00  0.000E+00  1.03364E+03  0.000E+00  1.200E+01  6.000E-01  1.000E+00
   1   12    7     6     4    0.0000E+00  0.0000E+00   0.0000E+00  0.000E+00  0.000E+00  0.000E+00  1.02909E+03  0.000E+00  1.200E+01  6.000E-01  2.803E-01
   1   13    7     6     5    0.0000E+00 -7.8130E-01   7.8130E-01  0.000E+00  0.000E+00  0.000E+00  1.02601E+03  1.007E-01  1.200E+01  2.400E-01 -1.085E+00
   1   14    9     7     1    1.5000E+02  2.0408E+00   1.4796E+02  0.000E+00  0.000E+00  0.000E+00  1.03987E+03  2.286E+00  5.529E+01  5.592E+00  1.216E-01
   1   13    8     7     2    1.4796E+02  2.9879E+00   1.4497E+02  0.000E+00  0.000E+00  0.000E+00  1.03477E+03  2.272E+00  5.523E+01  6.144E+00  1.621E-01
   1   13    7     7     3    1.4497E+02  2.3006E+00   1.4267E+02  0.000E+00  0.000E+00  0.000E+00  1.02968E+03  2.258E+00  5.516E+01  5.579E+00  1.375E-01
   1   13    6     8     1    1.4345E+02  6.5179E-01   1.4280E+02  0.000E+00  0.000E+00  0.000E+00  1.02464E+03  2.768E+00  4.013E+01  4.090E+00  5.313E-02
   1   13    5     8     2    1.4280E+02 -2.0336E+00   1.4483E+02  0.000E+00  0.000E+00  0.000E+00  1.01840E+03  2.773E+00  4.020E+01  4.097E+00 -1.655E-01
   1   13    4     8     3    1.4483E+02 -3.7765E+00   1.4861E+02  0.000E+00  0.000E+00  0.000E+00  1.01217E+03  2.794E+00  4.051E+01  4.128E+00 -3.050E-01
   1   13    3     8     4    1.4861E+02 -4.0287E+00   1.5264E+02  0.000E+00  0.000E+00  0.000E+00  1.00595E+03  2.821E+00  4.091E+01  4.169E+00 -3.221E-01
   1   13    2     8     5    1.5264E+02 -2.0783E+00   1.5472E+02  0.000E+00  0.000E+00  0.000E+00  9.99718E+02  2.843E+00  4.122E+01  4.200E+00 -1.649E-01
   1   13    1     8     6    1.5472E+02 -5.6635E-01   1.5528E+02  0.000E+00  0.000E+00  0.000E+00  9.94727E+02  2.852E+00  4.135E+01  2.528E+00 -7.467E-02



 UBDSV3 SAVING "           GW ET" ON UNIT  61 AT TIME STEP 10, STRESS PERIOD   8
 UBDSV3 SAVING "    UZF RECHARGE" ON UNIT  61 AT TIME STEP 10, STRESS PERIOD   8
 UBDSV3 SAVING " SURFACE LEAKAGE" ON UNIT  61 AT TIME STEP 10, STRESS PERIOD   8
 UBDSV3 SAVING "       HORT+DUNN" ON UNIT  61 AT TIME STEP 10, STRESS PERIOD   8
 UBDSV3 SAVING "  STORAGE CHANGE" ON UNIT  61 AT TIME STEP 10, STRESS PERIOD   8


UNSATURATED ZONE PACKAGE VOLUMETRIC BUDGET FOR  TIME STEP    10 STRESS PERIOD    8
  ------------------------------------------------------------------------------



     CUMULATIVE VOLUMES      L**3       RATES FOR THIS TIME STEP      L**3/T
     ------------------                 ------------------------

           IN:                                      IN:
           ---                                      ---
        INFILTRATION =  1325381138.9717          INFILTRATION =          42.3750

          OUT:                                     OUT:
          ----                                     ----
              UZF ET =  1528774631.9114                UZF ET =          68.2913
        UZF RECHARGE =   263539971.9299          UZF RECHARGE =          11.4558

            IN - OUT =  -466933464.8696              IN - OUT =         -37.3722

          STORAGE:                                 STORAGE:
          --------                                 --------
      STORAGE CHANGE =  -466732873.1791        STORAGE CHANGE =         -37.3735

 PERCENT DISCREPANCY IS DIFFERENCE BETWEEN IN-OUT MINUS CHANGE IN STORAGE
 DIVIDED BY THE AVERAGE OF IN AND OUT TIMES 100

 PERCENT DISCREPANCY =          -0.00     PERCENT DISCREPANCY =           0.00






1
  VOLUMETRIC BUDGET FOR ENTIRE MODEL AT END OF TIME STEP   10, STRESS PERIOD   8
  ------------------------------------------------------------------------------

     CUMULATIVE VOLUMES      L**3       RATES FOR THIS TIME STEP      L**3/T
     ------------------                 ------------------------

           IN:                                      IN:
           ---                                      ---
             STORAGE =    70231432.0000               STORAGE =           1.8722
       CONSTANT HEAD =           0.0000         CONSTANT HEAD =           0.0000
               WELLS =           0.0000                 WELLS =           0.0000
     HEAD DEP BOUNDS =     4117857.2500       HEAD DEP BOUNDS =           0.2089
      STREAM LEAKAGE =   850084608.0000        STREAM LEAKAGE =          42.9811
        UZF RECHARGE =   263540032.0000          UZF RECHARGE =          11.4558
               GW ET =           0.0000                 GW ET =           0.0000
     SURFACE LEAKAGE =           0.0000       SURFACE LEAKAGE =           0.0000

            TOTAL IN =  1187973888.0000              TOTAL IN =          56.5180

          OUT:                                     OUT:
          ----                                     ----
             STORAGE =   294204448.0000               STORAGE =          24.9309
       CONSTANT HEAD =           0.0000         CONSTANT HEAD =           0.0000
               WELLS =   289079936.0000                 WELLS =           0.0000
     HEAD DEP BOUNDS =     5195652.0000       HEAD DEP BOUNDS =           0.2641
      STREAM LEAKAGE =   265446640.0000        STREAM LEAKAGE =          13.2647
        UZF RECHARGE =           0.0000          UZF RECHARGE =           0.0000
               GW ET =   333951456.0000                 GW ET =          18.0770
     SURFACE LEAKAGE =           0.0000       SURFACE LEAKAGE =           0.0000

           TOTAL OUT =  1187878144.0000             TOTAL OUT =          56.5367

            IN - OUT =       95744.0000              IN - OUT =      -1.8692E-02

 PERCENT DISCREPANCY =           0.01     PERCENT DISCREPANCY =          -0.03






         TIME SUMMARY AT END OF TIME STEP   10 IN STRESS PERIOD    8
                    SECONDS     MINUTES      HOURS       DAYS        YEARS
                    -----------------------------------------------------------
   TIME STEP LENGTH 1.95033E+05  3250.6      54.176      2.2573     6.18023E-03
 STRESS PERIOD TIME 1.31823E+06  21971.      366.18      15.257     4.17723E-02
         TOTAL TIME 1.97142E+07 3.28570E+05  5476.2      228.17     0.62471    
1
 
 SOLVING FOR HEAD 
     7 ITERATIONS FOR TIME STEP  11 IN STRESS PERIOD    8

 MAXIMUM HEAD CHANGE FOR EACH ITERATION:

    HEAD CHANGE   HEAD CHANGE   HEAD CHANGE   HEAD CHANGE   HEAD CHANGE
  LAYER,ROW,COL LAYER,ROW,COL LAYER,ROW,COL LAYER,ROW,COL LAYER,ROW,COL
 ----------------------------------------------------------------------
     0.5298E-01    0.1773E-01    0.5932E-02    0.1980E-02    0.6606E-03
  (  1,  8,  4) (  1,  8,  4) (  1,  8,  4) (  1,  8,  4) (  1,  8,  4)
     0.2539E-03    0.1147E-03
  (  1,  7,  4) (  1,  2,  7)


 NO OUTPUT CONTROL FOR STRESS PERIOD    8   TIME STEP   11
 
 SOLVING FOR HEAD 
     7 ITERATIONS FOR TIME STEP  12 IN STRESS PERIOD    8

 MAXIMUM HEAD CHANGE FOR EACH ITERATION:

    HEAD CHANGE   HEAD CHANGE   HEAD CHANGE   HEAD CHANGE   HEAD CHANGE
  LAYER,ROW,COL LAYER,ROW,COL LAYER,ROW,COL LAYER,ROW,COL LAYER,ROW,COL
 ----------------------------------------------------------------------
     0.5715E-01    0.1913E-01    0.6375E-02    0.2096E-02    0.7073E-03
  (  1,  8,  4) (  1,  8,  4) (  1,  8,  4) (  1,  7,  4) (  1,  8,  4)
     0.2798E-03    0.1071E-03
  (  1,  8,  4) (  1,  2,  7)


 NO OUTPUT CONTROL FOR STRESS PERIOD    8   TIME STEP   12
 
 SOLVING FOR HEAD 
     7 ITERATIONS FOR TIME STEP  13 IN STRESS PERIOD    8

 MAXIMUM HEAD CHANGE FOR EACH ITERATION:

    HEAD CHANGE   HEAD CHANGE   HEAD CHANGE   HEAD CHANGE   HEAD CHANGE
  LAYER,ROW,COL LAYER,ROW,COL LAYER,ROW,COL LAYER,ROW,COL LAYER,ROW,COL
 ----------------------------------------------------------------------
     0.6170E-01    0.2065E-01    0.6854E-02    0.2323E-02    0.7515E-03
  (  1,  8,  4) (  1,  8,  4) (  1,  8,  4) (  1,  8,  4) (  1,  7,  4)
     0.2950E-03    0.1190E-03
  (  1,  8,  4) (  1,  9,  4)


 NO OUTPUT CONTROL FOR STRESS PERIOD    8   TIME STEP   13
 
 SOLVING FOR HEAD 
     7 ITERATIONS FOR TIME STEP  14 IN STRESS PERIOD    8

 MAXIMUM HEAD CHANGE FOR EACH ITERATION:

    HEAD CHANGE   HEAD CHANGE   HEAD CHANGE   HEAD CHANGE   HEAD CHANGE
  LAYER,ROW,COL LAYER,ROW,COL LAYER,ROW,COL LAYER,ROW,COL LAYER,ROW,COL
 ----------------------------------------------------------------------
     0.6622E-01    0.2212E-01    0.7404E-02    0.2452E-02    0.8367E-03
  (  1,  8,  4) (  1,  8,  4) (  1,  8,  4) (  1,  8,  4) (  1,  8,  4)
     0.2562E-03    0.1279E-03
  (  1,  8,  4) (  1,  7,  4)


 NO OUTPUT CONTROL FOR STRESS PERIOD    8   TIME STEP   14
 
 SOLVING FOR HEAD 
     7 ITERATIONS FOR TIME STEP  15 IN STRESS PERIOD    8

 MAXIMUM HEAD CHANGE FOR EACH ITERATION:

    HEAD CHANGE   HEAD CHANGE   HEAD CHANGE   HEAD CHANGE   HEAD CHANGE
  LAYER,ROW,COL LAYER,ROW,COL LAYER,ROW,COL LAYER,ROW,COL LAYER,ROW,COL
 ----------------------------------------------------------------------
     0.7094E-01    0.2375E-01    0.7849E-02    0.2626E-02    0.9058E-03
  (  1,  8,  4) (  1,  8,  4) (  1,  8,  4) (  1,  8,  4) (  1,  8,  4)
     0.3397E-03    0.1242E-03
  (  1,  9,  4) (  1,  7,  5)


 OUTPUT CONTROL FOR STRESS PERIOD    8   TIME STEP   15
    PRINT BUDGET
    PRINT HEAD FOR ALL LAYERS
    SAVE HEAD FOR ALL LAYERS
    SAVE BUDGET

  HEAD DEP BOUNDS   PERIOD    8   STEP  15
 BOUNDARY      1   LAYER   1   ROW    13   COL     1   RATE   -0.263832    
 BOUNDARY      2   LAYER   1   ROW    14   COL     9   RATE    0.208956    



 STREAM LISTING     PERIOD      8   STEP       15

 LAYER ROW COL. STREAM  RCH.  FLOW INTO     FLOW TO   FLOW OUT OF   OVRLND.     DIRECT     STREAM       STREAM     STREAM     STREAM   STREAMBED  STREAMBED
                SEG.NO.  NO.  STRM. RCH.    AQUIFER    STRM. RCH.    RUNOFF     PRECIP       ET          HEAD       DEPTH      WIDTH   CONDCTNC.   GRADIENT

   1    1    1     1     1    2.5000E+01  1.0528E+00   2.3947E+01  0.000E+00  0.000E+00  0.000E+00  1.09422E+03  1.172E+00  1.296E+01  5.831E-01  6.019E-01
   1    2    2     1     2    2.3947E+01  3.0652E+00   2.0882E+01  0.000E+00  0.000E+00  0.000E+00  1.08920E+03  1.140E+00  1.253E+01  8.772E-01  1.165E+00
   1    3    3     1     3    2.0882E+01  2.9034E+00   1.7979E+01  0.000E+00  0.000E+00  0.000E+00  1.08351E+03  1.091E+00  1.183E+01  7.097E-01  1.364E+00
   1    3    4     1     4    1.7979E+01  2.4661E+00   1.5513E+01  0.000E+00  0.000E+00  0.000E+00  1.07845E+03  1.045E+00  1.099E+01  6.097E-01  1.348E+00
   1    4    5     2     1    5.5126E+00  2.6621E+00   2.8504E+00  0.000E+00  0.000E+00  0.000E+00  1.07235E+03  4.130E-01  1.200E+01  7.800E-01  1.138E+00
   1    5    6     2     2    2.8504E+00  1.9531E+00   8.9736E-01  0.000E+00  0.000E+00  0.000E+00  1.06676E+03  2.551E-01  1.200E+01  6.000E-01  1.085E+00
   1    6    6     2     3    8.9736E-01  8.9736E-01   0.0000E+00  0.000E+00  0.000E+00  0.000E+00  1.06183E+03  3.691E-02  1.200E+01  6.000E-01  1.012E+00
   1    7    6     2     4    0.0000E+00  0.0000E+00   0.0000E+00  0.000E+00  0.000E+00  0.000E+00  1.05708E+03  0.000E+00  1.200E+01  6.000E-01  1.000E+00
   1    8    6     2     5    0.0000E+00  0.0000E+00   0.0000E+00  0.000E+00  0.000E+00  0.000E+00  1.05236E+03  0.000E+00  1.200E+01  6.000E-01  1.000E+00
   1    3    5     3     1    1.0000E+01  2.8252E+00   7.1748E+00  0.000E+00  0.000E+00  0.000E+00  1.07555E+03  1.909E+00  9.636E+00  7.227E-01  1.955E+00
   1    3    6     3     2    7.1748E+00  1.7690E+00   5.4058E+00  0.000E+00  0.000E+00  0.000E+00  1.07264E+03  1.727E+00  8.909E+00  6.682E-01  1.324E+00
   1    3    7     3     3    5.4058E+00  8.1284E-01   4.5930E+00  0.000E+00  0.000E+00  0.000E+00  1.06987E+03  1.555E+00  8.218E+00  5.547E-01  7.327E-01
   1    4    8     3     4    4.5930E+00  1.5261E+00   3.0669E+00  0.000E+00  0.000E+00  0.000E+00  1.06682E+03  1.364E+00  7.455E+00  6.709E-01  1.137E+00
   1    5    8     3     5    3.0669E+00  1.5790E+00   1.4879E+00  0.000E+00  0.000E+00  0.000E+00  1.06362E+03  1.164E+00  6.655E+00  4.991E-01  1.582E+00
   1    6    8     3     6    1.4879E+00  5.5980E-01   9.2813E-01  0.000E+00  0.000E+00  0.000E+00  1.06158E+03  1.036E+00  6.145E+00  1.844E-01  1.518E+00
   1    5   10     4     1    1.0000E+01  9.0525E-01   9.0947E+00  0.000E+00  0.000E+00  0.000E+00  1.07835E+03  6.210E-01  1.000E+01  2.500E-01  1.207E+00
   1    5    9     4     2    9.0947E+00  1.7835E+00   7.3113E+00  0.000E+00  0.000E+00  0.000E+00  1.07148E+03  5.670E-01  1.000E+01  5.000E-01  1.189E+00
   1    6    8     4     3    7.3113E+00  1.2257E+00   6.0855E+00  0.000E+00  0.000E+00  0.000E+00  1.06368E+03  5.021E-01  1.000E+01  3.500E-01  1.167E+00
   1    6    8     5     1    7.0137E+00  9.2109E-01   6.0926E+00  0.000E+00  0.000E+00  0.000E+00  1.05858E+03  5.793E-01  1.174E+01  4.696E-01  6.538E-01
   1    7    7     5     2    6.0926E+00  1.8036E+00   4.2889E+00  0.000E+00  0.000E+00  0.000E+00  1.05403E+03  5.339E-01  1.021E+01  5.104E-01  1.178E+00
   1    8    7     5     3    4.2889E+00  1.0265E+00   3.2625E+00  0.000E+00  0.000E+00  0.000E+00  1.04973E+03  4.776E-01  8.433E+00  2.952E-01  1.159E+00
   1    8    6     5     4    3.2625E+00  6.2508E-01   2.6374E+00  0.000E+00  0.000E+00  0.000E+00  1.04669E+03  4.381E-01  7.272E+00  1.818E-01  1.146E+00
   1    9    6     6     1    2.6374E+00  1.9442E+00   6.9319E-01  0.000E+00  0.000E+00  0.000E+00  1.04297E+03  2.404E-01  1.200E+01  6.000E-01  1.080E+00
   1   10    7     6     2    6.9319E-01  6.9319E-01   0.0000E+00  0.000E+00  0.000E+00  0.000E+00  1.03821E+03  3.197E-02  1.200E+01  6.000E-01  1.011E+00
   1   11    7     6     3    0.0000E+00  0.0000E+00   0.0000E+00  0.000E+00  0.000E+00  0.000E+00  1.03364E+03  0.000E+00  1.200E+01  6.000E-01  1.000E+00
   1   12    7     6     4    0.0000E+00  0.0000E+00   0.0000E+00  0.000E+00  0.000E+00  0.000E+00  1.02909E+03  0.000E+00  1.200E+01  6.000E-01  2.776E-01
   1   13    7     6     5    0.0000E+00 -7.7861E-01   7.7861E-01  0.000E+00  0.000E+00  0.000E+00  1.02601E+03  1.005E-01  1.200E+01  2.400E-01 -1.081E+00
   1   14    9     7     1    1.5000E+02  2.0431E+00   1.4796E+02  0.000E+00  0.000E+00  0.000E+00  1.03987E+03  2.286E+00  5.529E+01  5.592E+00  1.218E-01
   1   13    8     7     2    1.4796E+02  2.9953E+00   1.4496E+02  0.000E+00  0.000E+00  0.000E+00  1.03477E+03  2.272E+00  5.523E+01  6.144E+00  1.625E-01
   1   13    7     7     3    1.4496E+02  2.3631E+00   1.4260E+02  0.000E+00  0.000E+00  0.000E+00  1.02968E+03  2.258E+00  5.516E+01  5.578E+00  1.412E-01
   1   13    6     8     1    1.4338E+02  6.9777E-01   1.4268E+02  0.000E+00  0.000E+00  0.000E+00  1.02464E+03  2.767E+00  4.012E+01  4.089E+00  5.689E-02
   1   13    5     8     2    1.4268E+02 -2.0867E+00   1.4477E+02  0.000E+00  0.000E+00  0.000E+00  1.01840E+03  2.772E+00  4.019E+01  4.096E+00 -1.698E-01
   1   13    4     8     3    1.4477E+02 -3.8172E+00   1.4858E+02  0.000E+00  0.000E+00  0.000E+00  1.01217E+03  2.793E+00  4.050E+01  4.127E+00 -3.083E-01
   1   13    3     8     4    1.4858E+02 -4.0784E+00   1.5266E+02  0.000E+00  0.000E+00  0.000E+00  1.00595E+03  2.821E+00  4.091E+01  4.169E+00 -3.261E-01
   1   13    2     8     5    1.5266E+02 -2.0786E+00   1.5474E+02  0.000E+00  0.000E+00  0.000E+00  9.99718E+02  2.843E+00  4.122E+01  4.200E+00 -1.650E-01
   1   13    1     8     6    1.5474E+02 -5.4651E-01   1.5529E+02  0.000E+00  0.000E+00  0.000E+00  9.94727E+02  2.852E+00  4.135E+01  2.528E+00 -7.205E-02



 UBDSV3 SAVING "           GW ET" ON UNIT  61 AT TIME STEP 15, STRESS PERIOD   8
 UBDSV3 SAVING "    UZF RECHARGE" ON UNIT  61 AT TIME STEP 15, STRESS PERIOD   8
 UBDSV3 SAVING " SURFACE LEAKAGE" ON UNIT  61 AT TIME STEP 15, STRESS PERIOD   8
 UBDSV3 SAVING "       HORT+DUNN" ON UNIT  61 AT TIME STEP 15, STRESS PERIOD   8
 UBDSV3 SAVING "  STORAGE CHANGE" ON UNIT  61 AT TIME STEP 15, STRESS PERIOD   8


UNSATURATED ZONE PACKAGE VOLUMETRIC BUDGET FOR  TIME STEP    15 STRESS PERIOD    8
  ------------------------------------------------------------------------------



     CUMULATIVE VOLUMES      L**3       RATES FOR THIS TIME STEP      L**3/T
     ------------------                 ------------------------

           IN:                                      IN:
           ---                                      ---
        INFILTRATION =  1380882489.5186          INFILTRATION =          42.3750

          OUT:                                     OUT:
          ----                                     ----
              UZF ET =  1616894931.8743                UZF ET =          66.7391
        UZF RECHARGE =   278103945.1737          UZF RECHARGE =          10.9660

            IN - OUT =  -514116387.5294              IN - OUT =         -35.3301

          STORAGE:                                 STORAGE:
          --------                                 --------
      STORAGE CHANGE =  -513913145.5711        STORAGE CHANGE =         -35.3280

 PERCENT DISCREPANCY IS DIFFERENCE BETWEEN IN-OUT MINUS CHANGE IN STORAGE
 DIVIDED BY THE AVERAGE OF IN AND OUT TIMES 100

 PERCENT DISCREPANCY =          -0.00     PERCENT DISCREPANCY =          -0.00






1
              HEAD IN LAYER   1 AT END OF TIME STEP  15 IN STRESS PERIOD    8
  ---------------------------------------------------------------------------

           1       2       3       4       5       6       7       8       9      10
 ...................................................................................
   1  1092.41 1088.66 6999.00 6999.00 6999.00 6999.00 6999.00 6999.00 6999.00 6999.00
   2  1089.09 1085.70 1079.24 6999.00 6999.00 1074.03 1072.98 1070.69 6999.00 6999.00
   3  6999.00 1077.39 1074.45 1070.33 1071.24 1069.99 1068.41 1068.08 6999.00 6999.00
   4  1067.85 1068.44 1066.81 1063.36 1062.24 1060.97 1061.70 1064.54 1063.86 6999.00
   5  1063.70 1061.37 1058.88 1057.02 1056.77 1057.36 1057.28 1059.43 1062.93 1065.35
   6  1059.02 1055.46 1052.52 1051.13 1051.44 1052.80 1054.15 1056.62 1059.44 1063.69
   7  1055.36 1049.80 1046.70 1045.56 1046.20 1047.86 1050.39 1052.83 1054.20 6999.00
   8  6999.00 1042.46 1040.65 1040.02 1040.92 1042.79 1044.70 1047.25 1049.18 6999.00
   9  6999.00 1035.51 1034.65 1034.65 1035.86 1037.90 1038.90 1040.80 1043.76 6999.00
  10  6999.00 1028.46 1028.65 1029.66 1031.11 1032.92 1034.35 1036.31 1040.04 1044.39
  11  6999.00 1019.68 1021.28 1024.73 1026.78 1028.92 1030.51 1032.86 1036.31 6999.00
  12  1001.19 1008.85 1014.06 1018.88 1022.53 1025.81 1028.26 1031.10 1034.88 6999.00
  13   994.94 1000.21 1006.92 1013.09 1018.91 1024.47 1029.25 1034.28 1036.40 6999.00
  14  6999.00 1005.83 1011.52 1016.24 1021.27 1026.00 1030.27 1035.29 1039.50 6999.00
  15  6999.00 6999.00 1018.84 1021.83 1025.57 1028.55 6999.00 6999.00 6999.00 6999.00

 HEAD WILL BE SAVED ON UNIT   58 AT END OF TIME STEP   15, STRESS PERIOD    8
1
  VOLUMETRIC BUDGET FOR ENTIRE MODEL AT END OF TIME STEP   15, STRESS PERIOD   8
  ------------------------------------------------------------------------------

     CUMULATIVE VOLUMES      L**3       RATES FOR THIS TIME STEP      L**3/T
     ------------------                 ------------------------

           IN:                                      IN:
           ---                                      ---
             STORAGE =    72179184.0000               STORAGE =           1.1309
       CONSTANT HEAD =           0.0000         CONSTANT HEAD =           0.0000
               WELLS =           0.0000                 WELLS =           0.0000
     HEAD DEP BOUNDS =     4391528.0000       HEAD DEP BOUNDS =           0.2090
      STREAM LEAKAGE =   906479168.0000        STREAM LEAKAGE =          43.0992
        UZF RECHARGE =   278104000.0000          UZF RECHARGE =          10.9660
               GW ET =           0.0000                 GW ET =           0.0000
     SURFACE LEAKAGE =           0.0000       SURFACE LEAKAGE =           0.0000

            TOTAL IN =  1261153792.0000              TOTAL IN =          55.4050

          OUT:                                     OUT:
          ----                                     ----
             STORAGE =   325887584.0000               STORAGE =          23.7216
       CONSTANT HEAD =           0.0000         CONSTANT HEAD =           0.0000
               WELLS =   289079936.0000                 WELLS =           0.0000
     HEAD DEP BOUNDS =     5541376.5000       HEAD DEP BOUNDS =           0.2638
      STREAM LEAKAGE =   282933888.0000        STREAM LEAKAGE =          13.3861
        UZF RECHARGE =           0.0000          UZF RECHARGE =           0.0000
               GW ET =   357616672.0000                 GW ET =          18.0683
     SURFACE LEAKAGE =           0.0000       SURFACE LEAKAGE =           0.0000

           TOTAL OUT =  1261059456.0000             TOTAL OUT =          55.4399

            IN - OUT =       94336.0000              IN - OUT =      -3.4870E-02

 PERCENT DISCREPANCY =           0.01     PERCENT DISCREPANCY =          -0.06






         TIME SUMMARY AT END OF TIME STEP   15 IN STRESS PERIOD    8
                    SECONDS     MINUTES      HOURS       DAYS        YEARS
                    -----------------------------------------------------------
   TIME STEP LENGTH 3.14103E+05  5235.0      87.251      3.6354     9.95332E-03
 STRESS PERIOD TIME 2.62800E+06  43800.      730.00      30.417     8.32763E-02
         TOTAL TIME 2.10240E+07 3.50400E+05  5840.0      243.33     0.66621    
1
1
                            STRESS PERIOD NO.    9, LENGTH =   2628000.    
                            -----------------------------------------------

                              NUMBER OF TIME STEPS =    15

                               MULTIPLIER FOR DELT =     1.100

                            INITIAL TIME STEP SIZE =   82713.07    

 WELL NO.  LAYER   ROW   COL   STRESS RATE         
 --------------------------------------------------
      1      1      6      4      -1.000    
      2      1      6      5      -1.000    
      3      1      7      4      -1.000    
      4      1      7      5      -1.000    
      5      1      8      4      -1.000    
      6      1      8      5      -1.000    
      7      1      9      4      -1.000    
      8      1      9      5      -1.000    
      9      1     10      4      -1.000    
     10      1     10      5      -1.000    

     10 WELLS

 REUSING NON-PARAMETER GHB CELLS FROM LAST STRESS PERIOD

      2 GHB CELLS

 REUSING STREAM SEGMENT DATA FROM LAST STRESS PERIOD



            AREAL INFILTRATION RATE
 READING ON UNIT   19 WITH FORMAT: (10F4.0)            

            1           2           3           4           5           6           7           8           9          10
 ........................................................................................................................
   1   3.0000E-09  6.0000E-09   0.000       0.000       0.000       0.000       0.000       0.000       0.000       0.000    
   2   6.0000E-09  3.0000E-09  6.0000E-09   0.000       0.000      2.4000E-08  2.4000E-08  1.5000E-08   0.000       0.000    
   3    0.000      1.5000E-08  3.0000E-09  3.0000E-09  2.4000E-08  2.4000E-08  1.5000E-08  1.5000E-08   0.000       0.000    
   4   2.4000E-08  1.5000E-08  3.0000E-09  3.0000E-09  3.0000E-09  3.0000E-09  3.0000E-09  3.0000E-09  6.0000E-09   0.000    
   5   2.4000E-08  1.5000E-08  3.0000E-09  3.0000E-09  3.0000E-09  3.0000E-09  3.0000E-09  3.0000E-09  3.0000E-09  3.0000E-09
   6   2.4000E-08  1.5000E-08  1.5000E-08  6.0000E-09  6.0000E-09  3.0000E-09  3.0000E-09  3.0000E-09  3.0000E-09  1.5000E-08
   7   2.4000E-08  1.5000E-08  1.5000E-08  6.0000E-09  6.0000E-09  3.0000E-09  3.0000E-09  6.0000E-09  6.0000E-09   0.000    
   8    0.000      1.5000E-08  1.5000E-08  6.0000E-09  6.0000E-09  3.0000E-09  3.0000E-09  6.0000E-09  1.5000E-08   0.000    
   9    0.000      1.5000E-08  1.5000E-08  6.0000E-09  6.0000E-09  3.0000E-09  3.0000E-09  6.0000E-09  1.5000E-08   0.000    
  10    0.000      1.5000E-08  1.5000E-08  6.0000E-09  6.0000E-09  3.0000E-09  3.0000E-09  6.0000E-09  1.5000E-08  2.4000E-08
  11    0.000      3.0000E-09  3.0000E-09  3.0000E-09  3.0000E-09  3.0000E-09  3.0000E-09  6.0000E-09  1.5000E-08   0.000    
  12   3.0000E-09  3.0000E-09  3.0000E-09  3.0000E-09  3.0000E-09  3.0000E-09  3.0000E-09  3.0000E-09  6.0000E-09   0.000    
  13   3.0000E-09  3.0000E-09  6.0000E-09  6.0000E-09  6.0000E-09  6.0000E-09  6.0000E-09  3.0000E-09  3.0000E-09   0.000    
  14    0.000      6.0000E-09  1.5000E-08  1.5000E-08  1.5000E-08  1.5000E-08  1.5000E-08  6.0000E-09  3.0000E-09   0.000    
  15    0.000       0.000      2.4000E-08  2.4000E-08  2.4000E-08  2.4000E-08   0.000       0.000       0.000       0.000    

USING ET RATE FROM PREVIOUS STRESS PERIOD. CURRENT PERIOD IS:       9

 USING ET EXTINCTION DEPTH FROM PREVIOUS STRESS PERIOD. CURRENT PERIOD IS:       9

 USING EXTINCTION WATER CONTENT FROM PREVIOUS STRESS PERIOD. CURRENT PERIOD IS:       9
 
 SOLVING FOR HEAD 

     5 ITERATIONS FOR TIME STEP   1 IN STRESS PERIOD    9

 MAXIMUM HEAD CHANGE FOR EACH ITERATION:

    HEAD CHANGE   HEAD CHANGE   HEAD CHANGE   HEAD CHANGE   HEAD CHANGE
  LAYER,ROW,COL LAYER,ROW,COL LAYER,ROW,COL LAYER,ROW,COL LAYER,ROW,COL
 ----------------------------------------------------------------------
    -0.7713E-02   -0.2643E-02   -0.9647E-03    0.4864E-03    0.1961E-03
  (  1,  3,  5) (  1,  3,  5) (  1,  3,  5) (  1,  3,  6) (  1,  3,  6)


 NO OUTPUT CONTROL FOR STRESS PERIOD    9   TIME STEP    1
 
 SOLVING FOR HEAD 
     6 ITERATIONS FOR TIME STEP   2 IN STRESS PERIOD    9

 MAXIMUM HEAD CHANGE FOR EACH ITERATION:

    HEAD CHANGE   HEAD CHANGE   HEAD CHANGE   HEAD CHANGE   HEAD CHANGE
  LAYER,ROW,COL LAYER,ROW,COL LAYER,ROW,COL LAYER,ROW,COL LAYER,ROW,COL
 ----------------------------------------------------------------------
    -0.8261E-02   -0.2857E-02    0.1065E-02    0.4840E-03    0.2051E-03
  (  1,  3,  5) (  1,  3,  5) (  1,  3,  6) (  1,  3,  6) (  1,  3,  6)
     0.9569E-04
  (  1,  3,  6)


 NO OUTPUT CONTROL FOR STRESS PERIOD    9   TIME STEP    2
 
 SOLVING FOR HEAD 
     6 ITERATIONS FOR TIME STEP   3 IN STRESS PERIOD    9

 MAXIMUM HEAD CHANGE FOR EACH ITERATION:

    HEAD CHANGE   HEAD CHANGE   HEAD CHANGE   HEAD CHANGE   HEAD CHANGE
  LAYER,ROW,COL LAYER,ROW,COL LAYER,ROW,COL LAYER,ROW,COL LAYER,ROW,COL
 ----------------------------------------------------------------------
    -0.8626E-02   -0.2984E-02    0.1052E-02    0.4478E-03    0.2088E-03
  (  1,  3,  5) (  1,  3,  5) (  1,  3,  6) (  1,  3,  6) (  1,  3,  6)
     0.1010E-03
  (  1,  3,  6)


 NO OUTPUT CONTROL FOR STRESS PERIOD    9   TIME STEP    3
 
 SOLVING FOR HEAD 
     6 ITERATIONS FOR TIME STEP   4 IN STRESS PERIOD    9

 MAXIMUM HEAD CHANGE FOR EACH ITERATION:

    HEAD CHANGE   HEAD CHANGE   HEAD CHANGE   HEAD CHANGE   HEAD CHANGE
  LAYER,ROW,COL LAYER,ROW,COL LAYER,ROW,COL LAYER,ROW,COL LAYER,ROW,COL
 ----------------------------------------------------------------------
    -0.9137E-02   -0.3135E-02    0.1160E-02    0.4926E-03    0.2288E-03
  (  1,  3,  5) (  1,  3,  5) (  1,  3,  6) (  1,  3,  6) (  1,  3,  6)
     0.1106E-03
  (  1,  3,  6)


 NO OUTPUT CONTROL FOR STRESS PERIOD    9   TIME STEP    4
 
 SOLVING FOR HEAD 
     8 ITERATIONS FOR TIME STEP   5 IN STRESS PERIOD    9

 MAXIMUM HEAD CHANGE FOR EACH ITERATION:

    HEAD CHANGE   HEAD CHANGE   HEAD CHANGE   HEAD CHANGE   HEAD CHANGE
  LAYER,ROW,COL LAYER,ROW,COL LAYER,ROW,COL LAYER,ROW,COL LAYER,ROW,COL
 ----------------------------------------------------------------------
     0.1779E-01    0.9126E-02    0.4684E-02    0.2441E-02    0.1241E-02
  (  1,  4,  1) (  1,  4,  1) (  1,  4,  1) (  1,  4,  1) (  1,  4,  1)
     0.6242E-03    0.3505E-03    0.1453E-03
  (  1,  4,  1) (  1,  4,  1) (  1,  4,  1)


 OUTPUT CONTROL FOR STRESS PERIOD    9   TIME STEP    5
    PRINT BUDGET
    SAVE BUDGET

            WELLS   PERIOD    9   STEP   5
 WELL      1   LAYER   1   ROW     6   COL     4   RATE    -1.00000    
 WELL      2   LAYER   1   ROW     6   COL     5   RATE    -1.00000    
 WELL      3   LAYER   1   ROW     7   COL     4   RATE    -1.00000    
 WELL      4   LAYER   1   ROW     7   COL     5   RATE    -1.00000    
 WELL      5   LAYER   1   ROW     8   COL     4   RATE    -1.00000    
 WELL      6   LAYER   1   ROW     8   COL     5   RATE    -1.00000    
 WELL      7   LAYER   1   ROW     9   COL     4   RATE    -1.00000    
 WELL      8   LAYER   1   ROW     9   COL     5   RATE    -1.00000    
 WELL      9   LAYER   1   ROW    10   COL     4   RATE    -1.00000    
 WELL     10   LAYER   1   ROW    10   COL     5   RATE    -1.00000    

  HEAD DEP BOUNDS   PERIOD    9   STEP   5
 BOUNDARY      1   LAYER   1   ROW    13   COL     1   RATE   -0.263708    
 BOUNDARY      2   LAYER   1   ROW    14   COL     9   RATE    0.208952    



 STREAM LISTING     PERIOD      9   STEP        5

 LAYER ROW COL. STREAM  RCH.  FLOW INTO     FLOW TO   FLOW OUT OF   OVRLND.     DIRECT     STREAM       STREAM     STREAM     STREAM   STREAMBED  STREAMBED
                SEG.NO.  NO.  STRM. RCH.    AQUIFER    STRM. RCH.    RUNOFF     PRECIP       ET          HEAD       DEPTH      WIDTH   CONDCTNC.   GRADIENT

   1    1    1     1     1    2.5000E+01  1.0542E+00   2.3946E+01  0.000E+00  0.000E+00  0.000E+00  1.09422E+03  1.172E+00  1.296E+01  5.831E-01  6.027E-01
   1    2    2     1     2    2.3946E+01  3.0649E+00   2.0881E+01  0.000E+00  0.000E+00  0.000E+00  1.08920E+03  1.140E+00  1.253E+01  8.772E-01  1.165E+00
   1    3    3     1     3    2.0881E+01  2.9033E+00   1.7978E+01  0.000E+00  0.000E+00  0.000E+00  1.08351E+03  1.091E+00  1.183E+01  7.097E-01  1.364E+00
   1    3    4     1     4    1.7978E+01  2.4660E+00   1.5512E+01  0.000E+00  0.000E+00  0.000E+00  1.07845E+03  1.045E+00  1.098E+01  6.097E-01  1.348E+00
   1    4    5     2     1    5.5116E+00  2.6621E+00   2.8495E+00  0.000E+00  0.000E+00  0.000E+00  1.07235E+03  4.129E-01  1.200E+01  7.800E-01  1.138E+00
   1    5    6     2     2    2.8495E+00  1.9530E+00   8.9650E-01  0.000E+00  0.000E+00  0.000E+00  1.06676E+03  2.551E-01  1.200E+01  6.000E-01  1.085E+00
   1    6    6     2     3    8.9650E-01  8.9650E-01   0.0000E+00  0.000E+00  0.000E+00  0.000E+00  1.06183E+03  3.689E-02  1.200E+01  6.000E-01  1.012E+00
   1    7    6     2     4    0.0000E+00  0.0000E+00   0.0000E+00  0.000E+00  0.000E+00  0.000E+00  1.05708E+03  0.000E+00  1.200E+01  6.000E-01  1.000E+00
   1    8    6     2     5    0.0000E+00  0.0000E+00   0.0000E+00  0.000E+00  0.000E+00  0.000E+00  1.05236E+03  0.000E+00  1.200E+01  6.000E-01  1.000E+00
   1    3    5     3     1    1.0000E+01  2.8252E+00   7.1748E+00  0.000E+00  0.000E+00  0.000E+00  1.07555E+03  1.909E+00  9.636E+00  7.227E-01  1.955E+00
   1    3    6     3     2    7.1748E+00  1.7373E+00   5.4376E+00  0.000E+00  0.000E+00  0.000E+00  1.07264E+03  1.727E+00  8.909E+00  6.682E-01  1.300E+00
   1    3    7     3     3    5.4376E+00  8.1842E-01   4.6191E+00  0.000E+00  0.000E+00  0.000E+00  1.06987E+03  1.555E+00  8.218E+00  5.547E-01  7.377E-01
   1    4    8     3     4    4.6191E+00  1.5284E+00   3.0908E+00  0.000E+00  0.000E+00  0.000E+00  1.06682E+03  1.364E+00  7.455E+00  6.709E-01  1.139E+00
   1    5    8     3     5    3.0908E+00  1.5790E+00   1.5118E+00  0.000E+00  0.000E+00  0.000E+00  1.06362E+03  1.164E+00  6.655E+00  4.991E-01  1.582E+00
   1    6    8     3     6    1.5118E+00  5.5980E-01   9.5201E-01  0.000E+00  0.000E+00  0.000E+00  1.06158E+03  1.036E+00  6.145E+00  1.844E-01  1.518E+00
   1    5   10     4     1    1.0000E+01  9.0525E-01   9.0947E+00  0.000E+00  0.000E+00  0.000E+00  1.07835E+03  6.210E-01  1.000E+01  2.500E-01  1.207E+00
   1    5    9     4     2    9.0947E+00  1.7835E+00   7.3113E+00  0.000E+00  0.000E+00  0.000E+00  1.07148E+03  5.670E-01  1.000E+01  5.000E-01  1.189E+00
   1    6    8     4     3    7.3113E+00  1.2257E+00   6.0855E+00  0.000E+00  0.000E+00  0.000E+00  1.06368E+03  5.021E-01  1.000E+01  3.500E-01  1.167E+00
   1    6    8     5     1    7.0376E+00  9.2018E-01   6.1174E+00  0.000E+00  0.000E+00  0.000E+00  1.05858E+03  5.800E-01  1.177E+01  4.706E-01  6.517E-01
   1    7    7     5     2    6.1174E+00  1.8087E+00   4.3087E+00  0.000E+00  0.000E+00  0.000E+00  1.05403E+03  5.347E-01  1.023E+01  5.117E-01  1.178E+00
   1    8    7     5     3    4.3087E+00  1.0296E+00   3.2791E+00  0.000E+00  0.000E+00  0.000E+00  1.04973E+03  4.784E-01  8.457E+00  2.960E-01  1.159E+00
   1    8    6     5     4    3.2791E+00  6.2719E-01   2.6519E+00  0.000E+00  0.000E+00  0.000E+00  1.04669E+03  4.389E-01  7.295E+00  1.824E-01  1.146E+00
   1    9    6     6     1    2.6519E+00  1.9449E+00   7.0692E-01  0.000E+00  0.000E+00  0.000E+00  1.04297E+03  2.416E-01  1.200E+01  6.000E-01  1.081E+00
   1   10    7     6     2    7.0692E-01  7.0692E-01   0.0000E+00  0.000E+00  0.000E+00  0.000E+00  1.03821E+03  3.234E-02  1.200E+01  6.000E-01  1.011E+00
   1   11    7     6     3    0.0000E+00  0.0000E+00   0.0000E+00  0.000E+00  0.000E+00  0.000E+00  1.03364E+03  0.000E+00  1.200E+01  6.000E-01  1.000E+00
   1   12    7     6     4    0.0000E+00  0.0000E+00   0.0000E+00  0.000E+00  0.000E+00  0.000E+00  1.02909E+03  0.000E+00  1.200E+01  6.000E-01  2.766E-01
   1   13    7     6     5    0.0000E+00 -7.7780E-01   7.7780E-01  0.000E+00  0.000E+00  0.000E+00  1.02601E+03  1.004E-01  1.200E+01  2.400E-01 -1.080E+00
   1   14    9     7     1    1.5000E+02  2.0426E+00   1.4796E+02  0.000E+00  0.000E+00  0.000E+00  1.03987E+03  2.286E+00  5.529E+01  5.592E+00  1.218E-01
   1   13    8     7     2    1.4796E+02  2.9977E+00   1.4496E+02  0.000E+00  0.000E+00  0.000E+00  1.03477E+03  2.272E+00  5.523E+01  6.144E+00  1.626E-01
   1   13    7     7     3    1.4496E+02  2.3819E+00   1.4258E+02  0.000E+00  0.000E+00  0.000E+00  1.02968E+03  2.258E+00  5.516E+01  5.578E+00  1.423E-01
   1   13    6     8     1    1.4336E+02  7.0923E-01   1.4265E+02  0.000E+00  0.000E+00  0.000E+00  1.02464E+03  2.767E+00  4.012E+01  4.088E+00  5.783E-02
   1   13    5     8     2    1.4265E+02 -2.0957E+00   1.4474E+02  0.000E+00  0.000E+00  0.000E+00  1.01840E+03  2.772E+00  4.019E+01  4.096E+00 -1.706E-01
   1   13    4     8     3    1.4474E+02 -3.8271E+00   1.4857E+02  0.000E+00  0.000E+00  0.000E+00  1.01217E+03  2.793E+00  4.050E+01  4.127E+00 -3.091E-01
   1   13    3     8     4    1.4857E+02 -4.0862E+00   1.5266E+02  0.000E+00  0.000E+00  0.000E+00  1.00595E+03  2.821E+00  4.091E+01  4.169E+00 -3.267E-01
   1   13    2     8     5    1.5266E+02 -2.0796E+00   1.5474E+02  0.000E+00  0.000E+00  0.000E+00  9.99718E+02  2.843E+00  4.122E+01  4.200E+00 -1.650E-01
   1   13    1     8     6    1.5474E+02 -5.3839E-01   1.5527E+02  0.000E+00  0.000E+00  0.000E+00  9.94727E+02  2.852E+00  4.135E+01  2.528E+00 -7.098E-02



 UBDSV3 SAVING "           GW ET" ON UNIT  61 AT TIME STEP  5, STRESS PERIOD   9
 UBDSV3 SAVING "    UZF RECHARGE" ON UNIT  61 AT TIME STEP  5, STRESS PERIOD   9
 UBDSV3 SAVING " SURFACE LEAKAGE" ON UNIT  61 AT TIME STEP  5, STRESS PERIOD   9
 UBDSV3 SAVING "       HORT+DUNN" ON UNIT  61 AT TIME STEP  5, STRESS PERIOD   9
 UBDSV3 SAVING "  STORAGE CHANGE" ON UNIT  61 AT TIME STEP  5, STRESS PERIOD   9


UNSATURATED ZONE PACKAGE VOLUMETRIC BUDGET FOR  TIME STEP     5 STRESS PERIOD    9
  ------------------------------------------------------------------------------



     CUMULATIVE VOLUMES      L**3       RATES FOR THIS TIME STEP      L**3/T
     ------------------                 ------------------------

           IN:                                      IN:
           ---                                      ---
        INFILTRATION =  1393721391.8525          INFILTRATION =          25.4250

          OUT:                                     OUT:
          ----                                     ----
              UZF ET =  1650625629.8176                UZF ET =          66.8209
        UZF RECHARGE =   282955561.7951          UZF RECHARGE =          10.3548

            IN - OUT =  -539859799.7602              IN - OUT =         -51.7508

          STORAGE:                                 STORAGE:
          --------                                 --------
      STORAGE CHANGE =  -539656338.5937        STORAGE CHANGE =         -51.7493

 PERCENT DISCREPANCY IS DIFFERENCE BETWEEN IN-OUT MINUS CHANGE IN STORAGE
 DIVIDED BY THE AVERAGE OF IN AND OUT TIMES 100

 PERCENT DISCREPANCY =          -0.00     PERCENT DISCREPANCY =          -0.00






1
  VOLUMETRIC BUDGET FOR ENTIRE MODEL AT END OF TIME STEP    5, STRESS PERIOD   9
  ------------------------------------------------------------------------------

     CUMULATIVE VOLUMES      L**3       RATES FOR THIS TIME STEP      L**3/T
     ------------------                 ------------------------

           IN:                                      IN:
           ---                                      ---
             STORAGE =    72640256.0000               STORAGE =           0.7106
       CONSTANT HEAD =           0.0000         CONSTANT HEAD =           0.0000
               WELLS =           0.0000                 WELLS =           0.0000
     HEAD DEP BOUNDS =     4497042.0000       HEAD DEP BOUNDS =           0.2090
      STREAM LEAKAGE =   928253184.0000        STREAM LEAKAGE =          43.1314
        UZF RECHARGE =   282955616.0000          UZF RECHARGE =          10.3548
               GW ET =           0.0000                 GW ET =           0.0000
     SURFACE LEAKAGE =           0.0000       SURFACE LEAKAGE =           0.0000

            TOTAL IN =  1288346112.0000              TOTAL IN =          54.4058

          OUT:                                     OUT:
          ----                                     ----
             STORAGE =   332005824.0000               STORAGE =          12.6483
       CONSTANT HEAD =           0.0000         CONSTANT HEAD =           0.0000
               WELLS =   294129664.0000                 WELLS =          10.0000
     HEAD DEP BOUNDS =     5674563.5000       HEAD DEP BOUNDS =           0.2637
      STREAM LEAKAGE =   289699168.0000        STREAM LEAKAGE =          13.4048
        UZF RECHARGE =           0.0000          UZF RECHARGE =           0.0000
               GW ET =   366741376.0000                 GW ET =          18.0740
     SURFACE LEAKAGE =           0.0000       SURFACE LEAKAGE =           0.0000

           TOTAL OUT =  1288250624.0000             TOTAL OUT =          54.3908

            IN - OUT =       95488.0000              IN - OUT =       1.5038E-02

 PERCENT DISCREPANCY =           0.01     PERCENT DISCREPANCY =           0.03






         TIME SUMMARY AT END OF TIME STEP    5 IN STRESS PERIOD    9
                    SECONDS     MINUTES      HOURS       DAYS        YEARS
                    -----------------------------------------------------------
   TIME STEP LENGTH 1.21100E+05  2018.3      33.639      1.4016     3.83743E-03
 STRESS PERIOD TIME 5.04972E+05  8416.2      140.27      5.8446     1.60016E-02
         TOTAL TIME 2.15290E+07 3.58816E+05  5980.3      249.18     0.68221    
1
 
 SOLVING FOR HEAD 
     9 ITERATIONS FOR TIME STEP   6 IN STRESS PERIOD    9

 MAXIMUM HEAD CHANGE FOR EACH ITERATION:

    HEAD CHANGE   HEAD CHANGE   HEAD CHANGE   HEAD CHANGE   HEAD CHANGE
  LAYER,ROW,COL LAYER,ROW,COL LAYER,ROW,COL LAYER,ROW,COL LAYER,ROW,COL
 ----------------------------------------------------------------------
     0.3231E-01    0.1655E-01    0.8438E-02    0.4334E-02    0.2190E-02
  (  1,  4,  1) (  1,  4,  1) (  1,  4,  1) (  1,  4,  1) (  1,  4,  1)
     0.1100E-02    0.5507E-03    0.2755E-03    0.1378E-03
  (  1,  4,  1) (  1,  4,  1) (  1,  4,  1) (  1,  4,  1)


 NO OUTPUT CONTROL FOR STRESS PERIOD    9   TIME STEP    6
 
 SOLVING FOR HEAD 
     9 ITERATIONS FOR TIME STEP   7 IN STRESS PERIOD    9

 MAXIMUM HEAD CHANGE FOR EACH ITERATION:

    HEAD CHANGE   HEAD CHANGE   HEAD CHANGE   HEAD CHANGE   HEAD CHANGE
  LAYER,ROW,COL LAYER,ROW,COL LAYER,ROW,COL LAYER,ROW,COL LAYER,ROW,COL
 ----------------------------------------------------------------------
     0.3380E-01    0.1731E-01    0.8826E-02    0.4493E-02    0.2262E-02
  (  1,  4,  1) (  1,  4,  1) (  1,  4,  1) (  1,  4,  1) (  1,  4,  1)
     0.1180E-02    0.5996E-03    0.3017E-03    0.1513E-03
  (  1,  4,  1) (  1,  4,  1) (  1,  4,  1) (  1,  4,  1)


 NO OUTPUT CONTROL FOR STRESS PERIOD    9   TIME STEP    7
 
 SOLVING FOR HEAD 
     9 ITERATIONS FOR TIME STEP   8 IN STRESS PERIOD    9

 MAXIMUM HEAD CHANGE FOR EACH ITERATION:

    HEAD CHANGE   HEAD CHANGE   HEAD CHANGE   HEAD CHANGE   HEAD CHANGE
  LAYER,ROW,COL LAYER,ROW,COL LAYER,ROW,COL LAYER,ROW,COL LAYER,ROW,COL
 ----------------------------------------------------------------------
     0.3682E-01    0.1886E-01    0.9568E-02    0.4811E-02    0.2461E-02
  (  1,  4,  1) (  1,  4,  1) (  1,  4,  1) (  1,  4,  1) (  1,  4,  1)
     0.1192E-02    0.6380E-03    0.3274E-03    0.1654E-03
  (  1,  4,  1) (  1,  4,  1) (  1,  4,  1) (  1,  4,  1)


 NO OUTPUT CONTROL FOR STRESS PERIOD    9   TIME STEP    8
 
 SOLVING FOR HEAD 
     9 ITERATIONS FOR TIME STEP   9 IN STRESS PERIOD    9

 MAXIMUM HEAD CHANGE FOR EACH ITERATION:

    HEAD CHANGE   HEAD CHANGE   HEAD CHANGE   HEAD CHANGE   HEAD CHANGE
  LAYER,ROW,COL LAYER,ROW,COL LAYER,ROW,COL LAYER,ROW,COL LAYER,ROW,COL
 ----------------------------------------------------------------------
     0.3511E-01    0.1762E-01    0.8853E-02    0.4462E-02    0.2211E-02
  (  1,  4,  1) (  1,  4,  1) (  1,  4,  1) (  1,  4,  1) (  1,  4,  1)
     0.1101E-02    0.5497E-03    0.2747E-03    0.1648E-03
  (  1,  4,  1) (  1,  4,  1) (  1,  4,  1) (  1,  4,  1)


 NO OUTPUT CONTROL FOR STRESS PERIOD    9   TIME STEP    9
 
 SOLVING FOR HEAD 
     9 ITERATIONS FOR TIME STEP  10 IN STRESS PERIOD    9

 MAXIMUM HEAD CHANGE FOR EACH ITERATION:

    HEAD CHANGE   HEAD CHANGE   HEAD CHANGE   HEAD CHANGE   HEAD CHANGE
  LAYER,ROW,COL LAYER,ROW,COL LAYER,ROW,COL LAYER,ROW,COL LAYER,ROW,COL
 ----------------------------------------------------------------------
     0.3809E-01    0.1915E-01    0.9565E-02    0.4810E-02    0.2411E-02
  (  1,  4,  1) (  1,  4,  1) (  1,  4,  1) (  1,  4,  1) (  1,  4,  1)
     0.1206E-02    0.6036E-03    0.3018E-03    0.1207E-03
  (  1,  4,  1) (  1,  4,  1) (  1,  4,  1) (  1,  4,  1)


 OUTPUT CONTROL FOR STRESS PERIOD    9   TIME STEP   10
    PRINT BUDGET
    SAVE BUDGET

            WELLS   PERIOD    9   STEP  10
 WELL      1   LAYER   1   ROW     6   COL     4   RATE    -1.00000    
 WELL      2   LAYER   1   ROW     6   COL     5   RATE    -1.00000    
 WELL      3   LAYER   1   ROW     7   COL     4   RATE    -1.00000    
 WELL      4   LAYER   1   ROW     7   COL     5   RATE    -1.00000    
 WELL      5   LAYER   1   ROW     8   COL     4   RATE    -1.00000    
 WELL      6   LAYER   1   ROW     8   COL     5   RATE    -1.00000    
 WELL      7   LAYER   1   ROW     9   COL     4   RATE    -1.00000    
 WELL      8   LAYER   1   ROW     9   COL     5   RATE    -1.00000    
 WELL      9   LAYER   1   ROW    10   COL     4   RATE    -1.00000    
 WELL     10   LAYER   1   ROW    10   COL     5   RATE    -1.00000    

  HEAD DEP BOUNDS   PERIOD    9   STEP  10
 BOUNDARY      1   LAYER   1   ROW    13   COL     1   RATE   -0.263533    
 BOUNDARY      2   LAYER   1   ROW    14   COL     9   RATE    0.208956    



 STREAM LISTING     PERIOD      9   STEP       10

 LAYER ROW COL. STREAM  RCH.  FLOW INTO     FLOW TO   FLOW OUT OF   OVRLND.     DIRECT     STREAM       STREAM     STREAM     STREAM   STREAMBED  STREAMBED
                SEG.NO.  NO.  STRM. RCH.    AQUIFER    STRM. RCH.    RUNOFF     PRECIP       ET          HEAD       DEPTH      WIDTH   CONDCTNC.   GRADIENT

   1    1    1     1     1    2.5000E+01  1.0562E+00   2.3944E+01  0.000E+00  0.000E+00  0.000E+00  1.09422E+03  1.172E+00  1.296E+01  5.831E-01  6.038E-01
   1    2    2     1     2    2.3944E+01  3.0650E+00   2.0879E+01  0.000E+00  0.000E+00  0.000E+00  1.08920E+03  1.140E+00  1.253E+01  8.772E-01  1.165E+00
   1    3    3     1     3    2.0879E+01  2.9031E+00   1.7976E+01  0.000E+00  0.000E+00  0.000E+00  1.08351E+03  1.091E+00  1.183E+01  7.097E-01  1.364E+00
   1    3    4     1     4    1.7976E+01  2.4658E+00   1.5510E+01  0.000E+00  0.000E+00  0.000E+00  1.07845E+03  1.045E+00  1.098E+01  6.096E-01  1.348E+00
   1    4    5     2     1    5.5099E+00  2.6620E+00   2.8479E+00  0.000E+00  0.000E+00  0.000E+00  1.07235E+03  4.128E-01  1.200E+01  7.800E-01  1.138E+00
   1    5    6     2     2    2.8479E+00  1.9530E+00   8.9489E-01  0.000E+00  0.000E+00  0.000E+00  1.06676E+03  2.549E-01  1.200E+01  6.000E-01  1.085E+00
   1    6    6     2     3    8.9489E-01  8.9489E-01   0.0000E+00  0.000E+00  0.000E+00  0.000E+00  1.06183E+03  3.685E-02  1.200E+01  6.000E-01  1.012E+00
   1    7    6     2     4    0.0000E+00  0.0000E+00   0.0000E+00  0.000E+00  0.000E+00  0.000E+00  1.05708E+03  0.000E+00  1.200E+01  6.000E-01  1.000E+00
   1    8    6     2     5    0.0000E+00  0.0000E+00   0.0000E+00  0.000E+00  0.000E+00  0.000E+00  1.05236E+03  0.000E+00  1.200E+01  6.000E-01  1.000E+00
   1    3    5     3     1    1.0000E+01  2.8252E+00   7.1748E+00  0.000E+00  0.000E+00  0.000E+00  1.07555E+03  1.909E+00  9.636E+00  7.227E-01  1.955E+00
   1    3    6     3     2    7.1748E+00  1.7013E+00   5.4735E+00  0.000E+00  0.000E+00  0.000E+00  1.07264E+03  1.727E+00  8.909E+00  6.682E-01  1.273E+00
   1    3    7     3     3    5.4735E+00  7.9831E-01   4.6752E+00  0.000E+00  0.000E+00  0.000E+00  1.06987E+03  1.555E+00  8.218E+00  5.547E-01  7.195E-01
   1    4    8     3     4    4.6752E+00  1.5329E+00   3.1423E+00  0.000E+00  0.000E+00  0.000E+00  1.06682E+03  1.364E+00  7.455E+00  6.709E-01  1.142E+00
   1    5    8     3     5    3.1423E+00  1.5790E+00   1.5634E+00  0.000E+00  0.000E+00  0.000E+00  1.06362E+03  1.164E+00  6.655E+00  4.991E-01  1.582E+00
   1    6    8     3     6    1.5634E+00  5.5980E-01   1.0036E+00  0.000E+00  0.000E+00  0.000E+00  1.06158E+03  1.036E+00  6.145E+00  1.844E-01  1.518E+00
   1    5   10     4     1    1.0000E+01  9.0525E-01   9.0947E+00  0.000E+00  0.000E+00  0.000E+00  1.07835E+03  6.210E-01  1.000E+01  2.500E-01  1.207E+00
   1    5    9     4     2    9.0947E+00  1.7835E+00   7.3113E+00  0.000E+00  0.000E+00  0.000E+00  1.07148E+03  5.670E-01  1.000E+01  5.000E-01  1.189E+00
   1    6    8     4     3    7.3113E+00  1.2257E+00   6.0855E+00  0.000E+00  0.000E+00  0.000E+00  1.06368E+03  5.021E-01  1.000E+01  3.500E-01  1.167E+00
   1    6    8     5     1    7.0891E+00  9.1896E-01   6.1702E+00  0.000E+00  0.000E+00  0.000E+00  1.05858E+03  5.816E-01  1.182E+01  4.729E-01  6.478E-01
   1    7    7     5     2    6.1702E+00  1.8194E+00   4.3508E+00  0.000E+00  0.000E+00  0.000E+00  1.05404E+03  5.364E-01  1.029E+01  5.145E-01  1.179E+00
   1    8    7     5     3    4.3508E+00  1.0364E+00   3.3143E+00  0.000E+00  0.000E+00  0.000E+00  1.04973E+03  4.801E-01  8.509E+00  2.978E-01  1.160E+00
   1    8    6     5     4    3.3143E+00  6.3169E-01   2.6826E+00  0.000E+00  0.000E+00  0.000E+00  1.04669E+03  4.406E-01  7.344E+00  1.836E-01  1.147E+00
   1    9    6     6     1    2.6826E+00  1.9465E+00   7.3614E-01  0.000E+00  0.000E+00  0.000E+00  1.04297E+03  2.442E-01  1.200E+01  6.000E-01  1.081E+00
   1   10    7     6     2    7.3614E-01  7.3614E-01   0.0000E+00  0.000E+00  0.000E+00  0.000E+00  1.03821E+03  3.314E-02  1.200E+01  6.000E-01  1.011E+00
   1   11    7     6     3    0.0000E+00  0.0000E+00   0.0000E+00  0.000E+00  0.000E+00  0.000E+00  1.03364E+03  0.000E+00  1.200E+01  6.000E-01  1.000E+00
   1   12    7     6     4    0.0000E+00  0.0000E+00   0.0000E+00  0.000E+00  0.000E+00  0.000E+00  1.02909E+03  0.000E+00  1.200E+01  6.000E-01  2.750E-01
   1   13    7     6     5    0.0000E+00 -7.7706E-01   7.7706E-01  0.000E+00  0.000E+00  0.000E+00  1.02601E+03  1.004E-01  1.200E+01  2.400E-01 -1.079E+00
   1   14    9     7     1    1.5000E+02  2.0431E+00   1.4796E+02  0.000E+00  0.000E+00  0.000E+00  1.03987E+03  2.286E+00  5.529E+01  5.592E+00  1.218E-01
   1   13    8     7     2    1.4796E+02  3.0004E+00   1.4496E+02  0.000E+00  0.000E+00  0.000E+00  1.03477E+03  2.272E+00  5.523E+01  6.144E+00  1.628E-01
   1   13    7     7     3    1.4496E+02  2.3991E+00   1.4256E+02  0.000E+00  0.000E+00  0.000E+00  1.02968E+03  2.258E+00  5.516E+01  5.578E+00  1.434E-01
   1   13    6     8     1    1.4333E+02  7.2140E-01   1.4261E+02  0.000E+00  0.000E+00  0.000E+00  1.02464E+03  2.767E+00  4.012E+01  4.088E+00  5.882E-02
   1   13    5     8     2    1.4261E+02 -2.0940E+00   1.4471E+02  0.000E+00  0.000E+00  0.000E+00  1.01840E+03  2.772E+00  4.019E+01  4.095E+00 -1.704E-01
   1   13    4     8     3    1.4471E+02 -3.8041E+00   1.4851E+02  0.000E+00  0.000E+00  0.000E+00  1.01217E+03  2.793E+00  4.050E+01  4.127E+00 -3.073E-01
   1   13    3     8     4    1.4851E+02 -4.0782E+00   1.5259E+02  0.000E+00  0.000E+00  0.000E+00  1.00595E+03  2.821E+00  4.090E+01  4.168E+00 -3.262E-01
   1   13    2     8     5    1.5259E+02 -2.0810E+00   1.5467E+02  0.000E+00  0.000E+00  0.000E+00  9.99717E+02  2.842E+00  4.121E+01  4.200E+00 -1.652E-01
   1   13    1     8     6    1.5467E+02 -5.2787E-01   1.5520E+02  0.000E+00  0.000E+00  0.000E+00  9.94726E+02  2.851E+00  4.134E+01  2.528E+00 -6.961E-02



 UBDSV3 SAVING "           GW ET" ON UNIT  61 AT TIME STEP 10, STRESS PERIOD   9
 UBDSV3 SAVING "    UZF RECHARGE" ON UNIT  61 AT TIME STEP 10, STRESS PERIOD   9
 UBDSV3 SAVING " SURFACE LEAKAGE" ON UNIT  61 AT TIME STEP 10, STRESS PERIOD   9
 UBDSV3 SAVING "       HORT+DUNN" ON UNIT  61 AT TIME STEP 10, STRESS PERIOD   9
 UBDSV3 SAVING "  STORAGE CHANGE" ON UNIT  61 AT TIME STEP 10, STRESS PERIOD   9


UNSATURATED ZONE PACKAGE VOLUMETRIC BUDGET FOR  TIME STEP    10 STRESS PERIOD    9
  ------------------------------------------------------------------------------



     CUMULATIVE VOLUMES      L**3       RATES FOR THIS TIME STEP      L**3/T
     ------------------                 ------------------------

           IN:                                      IN:
           ---                                      ---
        INFILTRATION =  1414398573.3955          INFILTRATION =          25.4250

          OUT:                                     OUT:
          ----                                     ----
              UZF ET =  1704699305.8235                UZF ET =          65.9281
        UZF RECHARGE =   291832471.5775          UZF RECHARGE =          10.5581

            IN - OUT =  -582133204.0055              IN - OUT =         -51.0612

          STORAGE:                                 STORAGE:
          --------                                 --------
      STORAGE CHANGE =  -581927730.6474        STORAGE CHANGE =         -51.0593

 PERCENT DISCREPANCY IS DIFFERENCE BETWEEN IN-OUT MINUS CHANGE IN STORAGE
 DIVIDED BY THE AVERAGE OF IN AND OUT TIMES 100

 PERCENT DISCREPANCY =          -0.00     PERCENT DISCREPANCY =          -0.00






1
  VOLUMETRIC BUDGET FOR ENTIRE MODEL AT END OF TIME STEP   10, STRESS PERIOD   9
  ------------------------------------------------------------------------------

     CUMULATIVE VOLUMES      L**3       RATES FOR THIS TIME STEP      L**3/T
     ------------------                 ------------------------

           IN:                                      IN:
           ---                                      ---
             STORAGE =    73078192.0000               STORAGE =           0.6580
       CONSTANT HEAD =           0.0000         CONSTANT HEAD =           0.0000
               WELLS =           0.0000                 WELLS =           0.0000
     HEAD DEP BOUNDS =     4666976.0000       HEAD DEP BOUNDS =           0.2090
      STREAM LEAKAGE =   963346816.0000        STREAM LEAKAGE =          43.1640
        UZF RECHARGE =   291832512.0000          UZF RECHARGE =          10.5581
               GW ET =           0.0000                 GW ET =           0.0000
     SURFACE LEAKAGE =           0.0000       SURFACE LEAKAGE =           0.0000

            TOTAL IN =  1332924416.0000              TOTAL IN =          54.5891

          OUT:                                     OUT:
          ----                                     ----
             STORAGE =   342603616.0000               STORAGE =          12.7941
       CONSTANT HEAD =           0.0000         CONSTANT HEAD =           0.0000
               WELLS =   302262272.0000                 WELLS =          10.0000
     HEAD DEP BOUNDS =     5888938.0000       HEAD DEP BOUNDS =           0.2635
      STREAM LEAKAGE =   300590368.0000        STREAM LEAKAGE =          13.3621
        UZF RECHARGE =           0.0000          UZF RECHARGE =           0.0000
               GW ET =   381470848.0000                 GW ET =          18.1421
     SURFACE LEAKAGE =           0.0000       SURFACE LEAKAGE =           0.0000

           TOTAL OUT =  1332816128.0000             TOTAL OUT =          54.5618

            IN - OUT =      108288.0000              IN - OUT =       2.7222E-02

 PERCENT DISCREPANCY =           0.01     PERCENT DISCREPANCY =           0.05






         TIME SUMMARY AT END OF TIME STEP   10 IN STRESS PERIOD    9
                    SECONDS     MINUTES      HOURS       DAYS        YEARS
                    -----------------------------------------------------------
   TIME STEP LENGTH 1.95033E+05  3250.6      54.176      2.2573     6.18023E-03
 STRESS PERIOD TIME 1.31823E+06  21971.      366.18      15.257     4.17723E-02
         TOTAL TIME 2.23422E+07 3.72370E+05  6206.2      258.59     0.70798    
1
 
 SOLVING FOR HEAD 
     9 ITERATIONS FOR TIME STEP  11 IN STRESS PERIOD    9

 MAXIMUM HEAD CHANGE FOR EACH ITERATION:

    HEAD CHANGE   HEAD CHANGE   HEAD CHANGE   HEAD CHANGE   HEAD CHANGE
  LAYER,ROW,COL LAYER,ROW,COL LAYER,ROW,COL LAYER,ROW,COL LAYER,ROW,COL
 ----------------------------------------------------------------------
     0.4046E-01    0.2023E-01    0.1015E-01    0.5082E-02    0.2542E-02
  (  1,  4,  1) (  1,  4,  1) (  1,  4,  1) (  1,  4,  1) (  1,  4,  1)
     0.1305E-02    0.6588E-03    0.3307E-03    0.1325E-03
  (  1,  4,  1) (  1,  4,  1) (  1,  4,  1) (  1,  4,  1)


 NO OUTPUT CONTROL FOR STRESS PERIOD    9   TIME STEP   11
 
 SOLVING FOR HEAD 
     9 ITERATIONS FOR TIME STEP  12 IN STRESS PERIOD    9

 MAXIMUM HEAD CHANGE FOR EACH ITERATION:

    HEAD CHANGE   HEAD CHANGE   HEAD CHANGE   HEAD CHANGE   HEAD CHANGE
  LAYER,ROW,COL LAYER,ROW,COL LAYER,ROW,COL LAYER,ROW,COL LAYER,ROW,COL
 ----------------------------------------------------------------------
     0.4196E-01    0.2086E-01    0.1037E-01    0.5135E-02    0.2558E-02
  (  1,  4,  1) (  1,  4,  1) (  1,  4,  1) (  1,  4,  1) (  1,  4,  1)
     0.1241E-02    0.6125E-03    0.3411E-03    0.1411E-03
  (  1,  4,  1) (  1,  4,  1) (  1,  4,  1) (  1,  4,  1)


 NO OUTPUT CONTROL FOR STRESS PERIOD    9   TIME STEP   12
 
 SOLVING FOR HEAD 
     9 ITERATIONS FOR TIME STEP  13 IN STRESS PERIOD    9

 MAXIMUM HEAD CHANGE FOR EACH ITERATION:

    HEAD CHANGE   HEAD CHANGE   HEAD CHANGE   HEAD CHANGE   HEAD CHANGE
  LAYER,ROW,COL LAYER,ROW,COL LAYER,ROW,COL LAYER,ROW,COL LAYER,ROW,COL
 ----------------------------------------------------------------------
     0.4301E-01    0.2126E-01    0.1042E-01    0.5128E-02    0.2548E-02
  (  1,  4,  1) (  1,  4,  1) (  1,  4,  1) (  1,  4,  1) (  1,  4,  1)
     0.1230E-02    0.6464E-03    0.2894E-03    0.1379E-03
  (  1,  4,  1) (  1,  4,  1) (  1,  4,  1) (  1,  4,  1)


 NO OUTPUT CONTROL FOR STRESS PERIOD    9   TIME STEP   13
 
 SOLVING FOR HEAD 
     9 ITERATIONS FOR TIME STEP  14 IN STRESS PERIOD    9

 MAXIMUM HEAD CHANGE FOR EACH ITERATION:

    HEAD CHANGE   HEAD CHANGE   HEAD CHANGE   HEAD CHANGE   HEAD CHANGE
  LAYER,ROW,COL LAYER,ROW,COL LAYER,ROW,COL LAYER,ROW,COL LAYER,ROW,COL
 ----------------------------------------------------------------------
     0.4524E-01    0.2225E-01    0.1096E-01    0.5361E-02    0.2656E-02
  (  1,  4,  1) (  1,  4,  1) (  1,  4,  1) (  1,  4,  1) (  1,  4,  1)
     0.1323E-02    0.6165E-03    0.2992E-03    0.1478E-03
  (  1,  4,  1) (  1,  4,  1) (  1,  4,  1) (  1,  4,  1)


 NO OUTPUT CONTROL FOR STRESS PERIOD    9   TIME STEP   14
 
 SOLVING FOR HEAD 
    10 ITERATIONS FOR TIME STEP  15 IN STRESS PERIOD    9

 MAXIMUM HEAD CHANGE FOR EACH ITERATION:

    HEAD CHANGE   HEAD CHANGE   HEAD CHANGE   HEAD CHANGE   HEAD CHANGE
  LAYER,ROW,COL LAYER,ROW,COL LAYER,ROW,COL LAYER,ROW,COL LAYER,ROW,COL
 ----------------------------------------------------------------------
     0.6517E-01    0.3255E-01    0.1627E-01    0.8181E-02    0.4052E-02
  (  1,  6,  1) (  1,  6,  1) (  1,  6,  1) (  1,  6,  1) (  1,  6,  1)
     0.2066E-02    0.9925E-03    0.4885E-03    0.2904E-03    0.1339E-03
  (  1,  6,  1) (  1,  6,  1) (  1,  6,  1) (  1,  6,  1) (  1,  5,  1)


 OUTPUT CONTROL FOR STRESS PERIOD    9   TIME STEP   15
    PRINT BUDGET
    PRINT HEAD FOR ALL LAYERS
    SAVE HEAD FOR ALL LAYERS
    SAVE BUDGET

            WELLS   PERIOD    9   STEP  15
 WELL      1   LAYER   1   ROW     6   COL     4   RATE    -1.00000    
 WELL      2   LAYER   1   ROW     6   COL     5   RATE    -1.00000    
 WELL      3   LAYER   1   ROW     7   COL     4   RATE    -1.00000    
 WELL      4   LAYER   1   ROW     7   COL     5   RATE    -1.00000    
 WELL      5   LAYER   1   ROW     8   COL     4   RATE    -1.00000    
 WELL      6   LAYER   1   ROW     8   COL     5   RATE    -1.00000    
 WELL      7   LAYER   1   ROW     9   COL     4   RATE    -1.00000    
 WELL      8   LAYER   1   ROW     9   COL     5   RATE    -1.00000    
 WELL      9   LAYER   1   ROW    10   COL     4   RATE    -1.00000    
 WELL     10   LAYER   1   ROW    10   COL     5   RATE    -1.00000    

  HEAD DEP BOUNDS   PERIOD    9   STEP  15
 BOUNDARY      1   LAYER   1   ROW    13   COL     1   RATE   -0.263316    
 BOUNDARY      2   LAYER   1   ROW    14   COL     9   RATE    0.208973    



 STREAM LISTING     PERIOD      9   STEP       15

 LAYER ROW COL. STREAM  RCH.  FLOW INTO     FLOW TO   FLOW OUT OF   OVRLND.     DIRECT     STREAM       STREAM     STREAM     STREAM   STREAMBED  STREAMBED
                SEG.NO.  NO.  STRM. RCH.    AQUIFER    STRM. RCH.    RUNOFF     PRECIP       ET          HEAD       DEPTH      WIDTH   CONDCTNC.   GRADIENT

   1    1    1     1     1    2.5000E+01  1.0589E+00   2.3941E+01  0.000E+00  0.000E+00  0.000E+00  1.09422E+03  1.172E+00  1.296E+01  5.830E-01  6.054E-01
   1    2    2     1     2    2.3941E+01  3.0649E+00   2.0876E+01  0.000E+00  0.000E+00  0.000E+00  1.08920E+03  1.140E+00  1.253E+01  8.771E-01  1.165E+00
   1    3    3     1     3    2.0876E+01  2.9029E+00   1.7973E+01  0.000E+00  0.000E+00  0.000E+00  1.08351E+03  1.091E+00  1.183E+01  7.096E-01  1.364E+00
   1    3    4     1     4    1.7973E+01  2.4656E+00   1.5508E+01  0.000E+00  0.000E+00  0.000E+00  1.07845E+03  1.045E+00  1.098E+01  6.096E-01  1.348E+00
   1    4    5     2     1    5.5077E+00  2.6619E+00   2.8458E+00  0.000E+00  0.000E+00  0.000E+00  1.07235E+03  4.127E-01  1.200E+01  7.800E-01  1.138E+00
   1    5    6     2     2    2.8458E+00  1.9529E+00   8.9290E-01  0.000E+00  0.000E+00  0.000E+00  1.06676E+03  2.548E-01  1.200E+01  6.000E-01  1.085E+00
   1    6    6     2     3    8.9290E-01  8.9290E-01   0.0000E+00  0.000E+00  0.000E+00  0.000E+00  1.06183E+03  3.680E-02  1.200E+01  6.000E-01  1.012E+00
   1    7    6     2     4    0.0000E+00  0.0000E+00   0.0000E+00  0.000E+00  0.000E+00  0.000E+00  1.05708E+03  0.000E+00  1.200E+01  6.000E-01  1.000E+00
   1    8    6     2     5    0.0000E+00  0.0000E+00   0.0000E+00  0.000E+00  0.000E+00  0.000E+00  1.05236E+03  0.000E+00  1.200E+01  6.000E-01  1.000E+00
   1    3    5     3     1    1.0000E+01  2.8252E+00   7.1748E+00  0.000E+00  0.000E+00  0.000E+00  1.07555E+03  1.909E+00  9.636E+00  7.227E-01  1.955E+00
   1    3    6     3     2    7.1748E+00  1.7034E+00   5.4714E+00  0.000E+00  0.000E+00  0.000E+00  1.07264E+03  1.727E+00  8.909E+00  6.682E-01  1.275E+00
   1    3    7     3     3    5.4714E+00  7.8894E-01   4.6825E+00  0.000E+00  0.000E+00  0.000E+00  1.06987E+03  1.555E+00  8.218E+00  5.547E-01  7.111E-01
   1    4    8     3     4    4.6825E+00  1.5470E+00   3.1354E+00  0.000E+00  0.000E+00  0.000E+00  1.06682E+03  1.364E+00  7.455E+00  6.709E-01  1.153E+00
   1    5    8     3     5    3.1354E+00  1.5790E+00   1.5565E+00  0.000E+00  0.000E+00  0.000E+00  1.06362E+03  1.164E+00  6.655E+00  4.991E-01  1.582E+00
   1    6    8     3     6    1.5565E+00  5.5980E-01   9.9665E-01  0.000E+00  0.000E+00  0.000E+00  1.06158E+03  1.036E+00  6.145E+00  1.844E-01  1.518E+00
   1    5   10     4     1    1.0000E+01  9.0525E-01   9.0947E+00  0.000E+00  0.000E+00  0.000E+00  1.07835E+03  6.210E-01  1.000E+01  2.500E-01  1.207E+00
   1    5    9     4     2    9.0947E+00  1.7835E+00   7.3113E+00  0.000E+00  0.000E+00  0.000E+00  1.07148E+03  5.670E-01  1.000E+01  5.000E-01  1.189E+00
   1    6    8     4     3    7.3113E+00  1.2257E+00   6.0855E+00  0.000E+00  0.000E+00  0.000E+00  1.06368E+03  5.021E-01  1.000E+01  3.500E-01  1.167E+00
   1    6    8     5     1    7.0822E+00  9.0702E-01   6.1752E+00  0.000E+00  0.000E+00  0.000E+00  1.05858E+03  5.816E-01  1.182E+01  4.728E-01  6.394E-01
   1    7    7     5     2    6.1752E+00  1.8140E+00   4.3612E+00  0.000E+00  0.000E+00  0.000E+00  1.05404E+03  5.367E-01  1.030E+01  5.149E-01  1.174E+00
   1    8    7     5     3    4.3612E+00  1.0381E+00   3.3230E+00  0.000E+00  0.000E+00  0.000E+00  1.04973E+03  4.805E-01  8.522E+00  2.983E-01  1.160E+00
   1    8    6     5     4    3.3230E+00  6.3280E-01   2.6902E+00  0.000E+00  0.000E+00  0.000E+00  1.04669E+03  4.410E-01  7.356E+00  1.839E-01  1.147E+00
   1    9    6     6     1    2.6902E+00  1.9469E+00   7.4336E-01  0.000E+00  0.000E+00  0.000E+00  1.04297E+03  2.448E-01  1.200E+01  6.000E-01  1.082E+00
   1   10    7     6     2    7.4336E-01  7.4336E-01   0.0000E+00  0.000E+00  0.000E+00  0.000E+00  1.03822E+03  3.334E-02  1.200E+01  6.000E-01  1.011E+00
   1   11    7     6     3    0.0000E+00  0.0000E+00   0.0000E+00  0.000E+00  0.000E+00  0.000E+00  1.03364E+03  0.000E+00  1.200E+01  6.000E-01  1.000E+00
   1   12    7     6     4    0.0000E+00  0.0000E+00   0.0000E+00  0.000E+00  0.000E+00  0.000E+00  1.02909E+03  0.000E+00  1.200E+01  6.000E-01  2.721E-01
   1   13    7     6     5    0.0000E+00 -7.7630E-01   7.7630E-01  0.000E+00  0.000E+00  0.000E+00  1.02601E+03  1.003E-01  1.200E+01  2.400E-01 -1.078E+00
   1   14    9     7     1    1.5000E+02  2.0456E+00   1.4795E+02  0.000E+00  0.000E+00  0.000E+00  1.03987E+03  2.286E+00  5.529E+01  5.592E+00  1.219E-01
   1   13    8     7     2    1.4795E+02  3.0058E+00   1.4495E+02  0.000E+00  0.000E+00  0.000E+00  1.03477E+03  2.272E+00  5.523E+01  6.144E+00  1.631E-01
   1   13    7     7     3    1.4495E+02  2.4165E+00   1.4253E+02  0.000E+00  0.000E+00  0.000E+00  1.02968E+03  2.258E+00  5.516E+01  5.578E+00  1.444E-01
   1   13    6     8     1    1.4331E+02  7.3305E-01   1.4258E+02  0.000E+00  0.000E+00  0.000E+00  1.02464E+03  2.766E+00  4.011E+01  4.088E+00  5.978E-02
   1   13    5     8     2    1.4258E+02 -2.0611E+00   1.4464E+02  0.000E+00  0.000E+00  0.000E+00  1.01840E+03  2.771E+00  4.018E+01  4.095E+00 -1.678E-01
   1   13    4     8     3    1.4464E+02 -3.7861E+00   1.4842E+02  0.000E+00  0.000E+00  0.000E+00  1.01217E+03  2.792E+00  4.049E+01  4.126E+00 -3.059E-01
   1   13    3     8     4    1.4842E+02 -4.0363E+00   1.5246E+02  0.000E+00  0.000E+00  0.000E+00  1.00594E+03  2.820E+00  4.089E+01  4.167E+00 -3.229E-01
   1   13    2     8     5    1.5246E+02 -2.0791E+00   1.5454E+02  0.000E+00  0.000E+00  0.000E+00  9.99716E+02  2.841E+00  4.120E+01  4.198E+00 -1.651E-01
   1   13    1     8     6    1.5454E+02 -5.1573E-01   1.5505E+02  0.000E+00  0.000E+00  0.000E+00  9.94725E+02  2.850E+00  4.133E+01  2.527E+00 -6.803E-02



 UBDSV3 SAVING "           GW ET" ON UNIT  61 AT TIME STEP 15, STRESS PERIOD   9
 UBDSV3 SAVING "    UZF RECHARGE" ON UNIT  61 AT TIME STEP 15, STRESS PERIOD   9
 UBDSV3 SAVING " SURFACE LEAKAGE" ON UNIT  61 AT TIME STEP 15, STRESS PERIOD   9
 UBDSV3 SAVING "       HORT+DUNN" ON UNIT  61 AT TIME STEP 15, STRESS PERIOD   9
 UBDSV3 SAVING "  STORAGE CHANGE" ON UNIT  61 AT TIME STEP 15, STRESS PERIOD   9


UNSATURATED ZONE PACKAGE VOLUMETRIC BUDGET FOR  TIME STEP    15 STRESS PERIOD    9
  ------------------------------------------------------------------------------



     CUMULATIVE VOLUMES      L**3       RATES FOR THIS TIME STEP      L**3/T
     ------------------                 ------------------------

           IN:                                      IN:
           ---                                      ---
        INFILTRATION =  1447699382.9512          INFILTRATION =          25.4250

          OUT:                                     OUT:
          ----                                     ----
              UZF ET =  1783770191.2112                UZF ET =          57.7655
        UZF RECHARGE =   305509806.5420          UZF RECHARGE =          11.1589

            IN - OUT =  -641580614.8020              IN - OUT =         -43.4994

          STORAGE:                                 STORAGE:
          --------                                 --------
      STORAGE CHANGE =  -641379656.7102        STORAGE CHANGE =         -43.4971

 PERCENT DISCREPANCY IS DIFFERENCE BETWEEN IN-OUT MINUS CHANGE IN STORAGE
 DIVIDED BY THE AVERAGE OF IN AND OUT TIMES 100

 PERCENT DISCREPANCY =          -0.00     PERCENT DISCREPANCY =          -0.00






1
              HEAD IN LAYER   1 AT END OF TIME STEP  15 IN STRESS PERIOD    9
  ---------------------------------------------------------------------------

           1       2       3       4       5       6       7       8       9      10
 ...................................................................................
   1  1092.40 1088.65 6999.00 6999.00 6999.00 6999.00 6999.00 6999.00 6999.00 6999.00
   2  1089.07 1085.70 1079.26 6999.00 6999.00 1074.01 1072.95 1070.79 6999.00 6999.00
   3  6999.00 1077.38 1074.47 1070.34 1071.31 1070.09 1068.45 1068.03 6999.00 6999.00
   4  1068.66 1068.50 1066.88 1063.45 1062.32 1061.03 1061.71 1064.51 1063.88 6999.00
   5  1063.85 1061.43 1059.02 1057.22 1056.95 1057.49 1057.36 1059.48 1062.95 1065.36
   6  1059.19 1055.53 1052.72 1051.24 1051.52 1052.99 1054.26 1056.66 1059.47 1063.71
   7  1055.39 1049.89 1046.95 1045.75 1046.34 1048.09 1050.51 1052.89 1054.24 6999.00
   8  6999.00 1042.56 1040.92 1040.24 1041.08 1043.04 1044.84 1047.32 1049.21 6999.00
   9  6999.00 1035.60 1034.90 1034.84 1035.98 1038.12 1039.02 1040.87 1043.79 6999.00
  10  6999.00 1028.53 1028.85 1029.76 1031.20 1033.08 1034.41 1036.36 1040.07 1044.39
  11  6999.00 1019.71 1021.38 1024.90 1026.93 1029.02 1030.55 1032.88 1036.33 6999.00
  12  1001.20 1008.86 1014.09 1018.94 1022.59 1025.84 1028.27 1031.07 1034.89 6999.00
  13   994.93 1000.21 1006.91 1013.08 1018.90 1024.46 1029.24 1034.28 1036.40 6999.00
  14  6999.00 1005.83 1011.49 1016.21 1021.24 1025.94 1030.22 1035.27 1039.50 6999.00
  15  6999.00 6999.00 1018.84 1021.83 1025.57 1028.54 6999.00 6999.00 6999.00 6999.00

 HEAD WILL BE SAVED ON UNIT   58 AT END OF TIME STEP   15, STRESS PERIOD    9
1
  VOLUMETRIC BUDGET FOR ENTIRE MODEL AT END OF TIME STEP   15, STRESS PERIOD   9
  ------------------------------------------------------------------------------

     CUMULATIVE VOLUMES      L**3       RATES FOR THIS TIME STEP      L**3/T
     ------------------                 ------------------------

           IN:                                      IN:
           ---                                      ---
             STORAGE =    74062232.0000               STORAGE =           0.8943
       CONSTANT HEAD =           0.0000         CONSTANT HEAD =           0.0000
               WELLS =           0.0000                 WELLS =           0.0000
     HEAD DEP BOUNDS =     4940672.5000       HEAD DEP BOUNDS =           0.2090
      STREAM LEAKAGE =  1019912512.0000        STREAM LEAKAGE =          43.2010
        UZF RECHARGE =   305509824.0000          UZF RECHARGE =          11.1589
               GW ET =           0.0000                 GW ET =           0.0000
     SURFACE LEAKAGE =           0.0000       SURFACE LEAKAGE =           0.0000

            TOTAL IN =  1404425216.0000              TOTAL IN =          55.4632

          OUT:                                     OUT:
          ----                                     ----
             STORAGE =   359405792.0000               STORAGE =          13.7057
       CONSTANT HEAD =           0.0000         CONSTANT HEAD =           0.0000
               WELLS =   315359968.0000                 WELLS =          10.0000
     HEAD DEP BOUNDS =     6233926.0000       HEAD DEP BOUNDS =           0.2633
      STREAM LEAKAGE =   317989664.0000        STREAM LEAKAGE =          13.2547
        UZF RECHARGE =           0.0000          UZF RECHARGE =           0.0000
               GW ET =   405332768.0000                 GW ET =          18.2545
     SURFACE LEAKAGE =           0.0000       SURFACE LEAKAGE =           0.0000

           TOTAL OUT =  1404322048.0000             TOTAL OUT =          55.4782

            IN - OUT =      103168.0000              IN - OUT =      -1.5018E-02

 PERCENT DISCREPANCY =           0.01     PERCENT DISCREPANCY =          -0.03






         TIME SUMMARY AT END OF TIME STEP   15 IN STRESS PERIOD    9
                    SECONDS     MINUTES      HOURS       DAYS        YEARS
                    -----------------------------------------------------------
   TIME STEP LENGTH 3.14103E+05  5235.0      87.251      3.6354     9.95332E-03
 STRESS PERIOD TIME 2.62800E+06  43800.      730.00      30.417     8.32763E-02
         TOTAL TIME 2.36520E+07 3.94200E+05  6570.0      273.75     0.74949    
1
1
                            STRESS PERIOD NO.   10, LENGTH =   2628000.    
                            -----------------------------------------------

                              NUMBER OF TIME STEPS =    15

                               MULTIPLIER FOR DELT =     1.100

                            INITIAL TIME STEP SIZE =   82713.07    

      0 WELLS

 REUSING NON-PARAMETER GHB CELLS FROM LAST STRESS PERIOD

      2 GHB CELLS

 REUSING STREAM SEGMENT DATA FROM LAST STRESS PERIOD



            AREAL INFILTRATION RATE
 READING ON UNIT   19 WITH FORMAT: (10F4.0)            

            1           2           3           4           5           6           7           8           9          10
 ........................................................................................................................
   1   2.0000E-09  4.0000E-09   0.000       0.000       0.000       0.000       0.000       0.000       0.000       0.000    
   2   4.0000E-09  2.0000E-09  4.0000E-09   0.000       0.000      1.6000E-08  1.6000E-08  1.0000E-08   0.000       0.000    
   3    0.000      1.0000E-08  2.0000E-09  2.0000E-09  1.6000E-08  1.6000E-08  1.0000E-08  1.0000E-08   0.000       0.000    
   4   1.6000E-08  1.0000E-08  2.0000E-09  2.0000E-09  2.0000E-09  2.0000E-09  2.0000E-09  2.0000E-09  4.0000E-09   0.000    
   5   1.6000E-08  1.0000E-08  2.0000E-09  2.0000E-09  2.0000E-09  2.0000E-09  2.0000E-09  2.0000E-09  2.0000E-09  2.0000E-09
   6   1.6000E-08  1.0000E-08  1.0000E-08  4.0000E-09  4.0000E-09  2.0000E-09  2.0000E-09  2.0000E-09  2.0000E-09  1.0000E-08
   7   1.6000E-08  1.0000E-08  1.0000E-08  4.0000E-09  4.0000E-09  2.0000E-09  2.0000E-09  4.0000E-09  4.0000E-09   0.000    
   8    0.000      1.0000E-08  1.0000E-08  4.0000E-09  4.0000E-09  2.0000E-09  2.0000E-09  4.0000E-09  1.0000E-08   0.000    
   9    0.000      1.0000E-08  1.0000E-08  4.0000E-09  4.0000E-09  2.0000E-09  2.0000E-09  4.0000E-09  1.0000E-08   0.000    
  10    0.000      1.0000E-08  1.0000E-08  4.0000E-09  4.0000E-09  2.0000E-09  2.0000E-09  4.0000E-09  1.0000E-08  1.6000E-08
  11    0.000      2.0000E-09  2.0000E-09  2.0000E-09  2.0000E-09  2.0000E-09  2.0000E-09  4.0000E-09  1.0000E-08   0.000    
  12   2.0000E-09  2.0000E-09  2.0000E-09  2.0000E-09  2.0000E-09  2.0000E-09  2.0000E-09  2.0000E-09  4.0000E-09   0.000    
  13   2.0000E-09  2.0000E-09  4.0000E-09  4.0000E-09  4.0000E-09  4.0000E-09  4.0000E-09  2.0000E-09  2.0000E-09   0.000    
  14    0.000      4.0000E-09  1.0000E-08  1.0000E-08  1.0000E-08  1.0000E-08  1.0000E-08  4.0000E-09  2.0000E-09   0.000    
  15    0.000       0.000      1.6000E-08  1.6000E-08  1.6000E-08  1.6000E-08   0.000       0.000       0.000       0.000    

USING ET RATE FROM PREVIOUS STRESS PERIOD. CURRENT PERIOD IS:      10

 USING ET EXTINCTION DEPTH FROM PREVIOUS STRESS PERIOD. CURRENT PERIOD IS:      10

 USING EXTINCTION WATER CONTENT FROM PREVIOUS STRESS PERIOD. CURRENT PERIOD IS:      10
 
 SOLVING FOR HEAD 

     8 ITERATIONS FOR TIME STEP   1 IN STRESS PERIOD   10

 MAXIMUM HEAD CHANGE FOR EACH ITERATION:

    HEAD CHANGE   HEAD CHANGE   HEAD CHANGE   HEAD CHANGE   HEAD CHANGE
  LAYER,ROW,COL LAYER,ROW,COL LAYER,ROW,COL LAYER,ROW,COL LAYER,ROW,COL
 ----------------------------------------------------------------------
     0.1813E-01    0.9088E-02    0.4600E-02    0.2311E-02    0.1183E-02
  (  1,  5,  1) (  1,  5,  1) (  1,  5,  1) (  1,  5,  1) (  1,  5,  1)
     0.5458E-03    0.3151E-03    0.1661E-03
  (  1,  5,  1) (  1,  5,  1) (  1,  5,  1)


 NO OUTPUT CONTROL FOR STRESS PERIOD   10   TIME STEP    1
 
 SOLVING FOR HEAD 
     8 ITERATIONS FOR TIME STEP   2 IN STRESS PERIOD   10

 MAXIMUM HEAD CHANGE FOR EACH ITERATION:

    HEAD CHANGE   HEAD CHANGE   HEAD CHANGE   HEAD CHANGE   HEAD CHANGE
  LAYER,ROW,COL LAYER,ROW,COL LAYER,ROW,COL LAYER,ROW,COL LAYER,ROW,COL
 ----------------------------------------------------------------------
     0.1991E-01    0.9988E-02    0.5056E-02    0.2541E-02    0.1245E-02
  (  1,  5,  1) (  1,  5,  1) (  1,  5,  1) (  1,  5,  1) (  1,  5,  1)
     0.6454E-03    0.2990E-03    0.1730E-03
  (  1,  5,  1) (  1,  5,  1) (  1,  5,  1)


 NO OUTPUT CONTROL FOR STRESS PERIOD   10   TIME STEP    2
 
 SOLVING FOR HEAD 
     8 ITERATIONS FOR TIME STEP   3 IN STRESS PERIOD   10

 MAXIMUM HEAD CHANGE FOR EACH ITERATION:

    HEAD CHANGE   HEAD CHANGE   HEAD CHANGE   HEAD CHANGE   HEAD CHANGE
  LAYER,ROW,COL LAYER,ROW,COL LAYER,ROW,COL LAYER,ROW,COL LAYER,ROW,COL
 ----------------------------------------------------------------------
     0.2132E-01    0.1062E-01    0.5301E-02    0.2680E-02    0.1345E-02
  (  1,  5,  1) (  1,  5,  1) (  1,  5,  1) (  1,  5,  1) (  1,  5,  1)
     0.6428E-03    0.3155E-03    0.1876E-03
  (  1,  5,  1) (  1,  5,  1) (  1,  5,  1)


 NO OUTPUT CONTROL FOR STRESS PERIOD   10   TIME STEP    3
 
 SOLVING FOR HEAD 
     8 ITERATIONS FOR TIME STEP   4 IN STRESS PERIOD   10

 MAXIMUM HEAD CHANGE FOR EACH ITERATION:

    HEAD CHANGE   HEAD CHANGE   HEAD CHANGE   HEAD CHANGE   HEAD CHANGE
  LAYER,ROW,COL LAYER,ROW,COL LAYER,ROW,COL LAYER,ROW,COL LAYER,ROW,COL
 ----------------------------------------------------------------------
     0.2263E-01    0.1120E-01    0.5529E-02    0.2818E-02    0.1386E-02
  (  1,  8,  4) (  1,  5,  1) (  1,  5,  1) (  1,  5,  1) (  1,  5,  1)
     0.6881E-03    0.3432E-03    0.1370E-03
  (  1,  5,  1) (  1,  5,  1) (  1,  5,  1)


 NO OUTPUT CONTROL FOR STRESS PERIOD   10   TIME STEP    4
 
 SOLVING FOR HEAD 
     9 ITERATIONS FOR TIME STEP   5 IN STRESS PERIOD   10

 MAXIMUM HEAD CHANGE FOR EACH ITERATION:

    HEAD CHANGE   HEAD CHANGE   HEAD CHANGE   HEAD CHANGE   HEAD CHANGE
  LAYER,ROW,COL LAYER,ROW,COL LAYER,ROW,COL LAYER,ROW,COL LAYER,ROW,COL
 ----------------------------------------------------------------------
     0.2459E-01    0.1221E-01    0.6057E-02    0.3019E-02    0.1507E-02
  (  1,  8,  4) (  1,  5,  1) (  1,  5,  1) (  1,  5,  1) (  1,  5,  1)
     0.7533E-03    0.3763E-03    0.2259E-03    0.1202E-03
  (  1,  5,  1) (  1,  5,  1) (  1,  5,  1) (  1,  5,  1)


 OUTPUT CONTROL FOR STRESS PERIOD   10   TIME STEP    5
    PRINT BUDGET
    SAVE BUDGET

  HEAD DEP BOUNDS   PERIOD   10   STEP   5
 BOUNDARY      1   LAYER   1   ROW    13   COL     1   RATE   -0.263252    
 BOUNDARY      2   LAYER   1   ROW    14   COL     9   RATE    0.208970    



 STREAM LISTING     PERIOD     10   STEP        5

 LAYER ROW COL. STREAM  RCH.  FLOW INTO     FLOW TO   FLOW OUT OF   OVRLND.     DIRECT     STREAM       STREAM     STREAM     STREAM   STREAMBED  STREAMBED
                SEG.NO.  NO.  STRM. RCH.    AQUIFER    STRM. RCH.    RUNOFF     PRECIP       ET          HEAD       DEPTH      WIDTH   CONDCTNC.   GRADIENT

   1    1    1     1     1    2.5000E+01  1.0600E+00   2.3940E+01  0.000E+00  0.000E+00  0.000E+00  1.09422E+03  1.172E+00  1.296E+01  5.830E-01  6.060E-01
   1    2    2     1     2    2.3940E+01  3.0648E+00   2.0875E+01  0.000E+00  0.000E+00  0.000E+00  1.08920E+03  1.140E+00  1.253E+01  8.771E-01  1.165E+00
   1    3    3     1     3    2.0875E+01  2.9028E+00   1.7972E+01  0.000E+00  0.000E+00  0.000E+00  1.08351E+03  1.091E+00  1.183E+01  7.096E-01  1.364E+00
   1    3    4     1     4    1.7972E+01  2.4656E+00   1.5507E+01  0.000E+00  0.000E+00  0.000E+00  1.07845E+03  1.045E+00  1.098E+01  6.096E-01  1.348E+00
   1    4    5     2     1    5.5068E+00  2.6619E+00   2.8449E+00  0.000E+00  0.000E+00  0.000E+00  1.07235E+03  4.127E-01  1.200E+01  7.800E-01  1.138E+00
   1    5    6     2     2    2.8449E+00  1.9528E+00   8.9211E-01  0.000E+00  0.000E+00  0.000E+00  1.06676E+03  2.547E-01  1.200E+01  6.000E-01  1.085E+00
   1    6    6     2     3    8.9211E-01  8.9211E-01   0.0000E+00  0.000E+00  0.000E+00  0.000E+00  1.06183E+03  3.678E-02  1.200E+01  6.000E-01  1.012E+00
   1    7    6     2     4    0.0000E+00  0.0000E+00   0.0000E+00  0.000E+00  0.000E+00  0.000E+00  1.05708E+03  0.000E+00  1.200E+01  6.000E-01  1.000E+00
   1    8    6     2     5    0.0000E+00  0.0000E+00   0.0000E+00  0.000E+00  0.000E+00  0.000E+00  1.05236E+03  0.000E+00  1.200E+01  6.000E-01  1.000E+00
   1    3    5     3     1    1.0000E+01  2.8252E+00   7.1748E+00  0.000E+00  0.000E+00  0.000E+00  1.07555E+03  1.909E+00  9.636E+00  7.227E-01  1.955E+00
   1    3    6     3     2    7.1748E+00  1.7357E+00   5.4391E+00  0.000E+00  0.000E+00  0.000E+00  1.07264E+03  1.727E+00  8.909E+00  6.682E-01  1.299E+00
   1    3    7     3     3    5.4391E+00  8.0197E-01   4.6372E+00  0.000E+00  0.000E+00  0.000E+00  1.06987E+03  1.555E+00  8.218E+00  5.547E-01  7.228E-01
   1    4    8     3     4    4.6372E+00  1.5518E+00   3.0854E+00  0.000E+00  0.000E+00  0.000E+00  1.06682E+03  1.364E+00  7.455E+00  6.709E-01  1.156E+00
   1    5    8     3     5    3.0854E+00  1.5790E+00   1.5064E+00  0.000E+00  0.000E+00  0.000E+00  1.06362E+03  1.164E+00  6.655E+00  4.991E-01  1.582E+00
   1    6    8     3     6    1.5064E+00  5.5980E-01   9.4660E-01  0.000E+00  0.000E+00  0.000E+00  1.06158E+03  1.036E+00  6.145E+00  1.844E-01  1.518E+00
   1    5   10     4     1    1.0000E+01  9.0525E-01   9.0947E+00  0.000E+00  0.000E+00  0.000E+00  1.07835E+03  6.210E-01  1.000E+01  2.500E-01  1.207E+00
   1    5    9     4     2    9.0947E+00  1.7835E+00   7.3113E+00  0.000E+00  0.000E+00  0.000E+00  1.07148E+03  5.670E-01  1.000E+01  5.000E-01  1.189E+00
   1    6    8     4     3    7.3113E+00  1.2257E+00   6.0855E+00  0.000E+00  0.000E+00  0.000E+00  1.06368E+03  5.021E-01  1.000E+01  3.500E-01  1.167E+00
   1    6    8     5     1    7.0321E+00  8.9804E-01   6.1341E+00  0.000E+00  0.000E+00  0.000E+00  1.05858E+03  5.802E-01  1.177E+01  4.709E-01  6.357E-01
   1    7    7     5     2    6.1341E+00  1.7952E+00   4.3389E+00  0.000E+00  0.000E+00  0.000E+00  1.05404E+03  5.355E-01  1.026E+01  5.131E-01  1.166E+00
   1    8    7     5     3    4.3389E+00  1.0345E+00   3.3044E+00  0.000E+00  0.000E+00  0.000E+00  1.04973E+03  4.796E-01  8.495E+00  2.973E-01  1.160E+00
   1    8    6     5     4    3.3044E+00  6.3043E-01   2.6740E+00  0.000E+00  0.000E+00  0.000E+00  1.04669E+03  4.401E-01  7.330E+00  1.833E-01  1.147E+00
   1    9    6     6     1    2.6740E+00  1.9461E+00   7.2791E-01  0.000E+00  0.000E+00  0.000E+00  1.04297E+03  2.434E-01  1.200E+01  6.000E-01  1.081E+00
   1   10    7     6     2    7.2791E-01  7.2791E-01   0.0000E+00  0.000E+00  0.000E+00  0.000E+00  1.03821E+03  3.292E-02  1.200E+01  6.000E-01  1.011E+00
   1   11    7     6     3    0.0000E+00  0.0000E+00   0.0000E+00  0.000E+00  0.000E+00  0.000E+00  1.03364E+03  0.000E+00  1.200E+01  6.000E-01  1.000E+00
   1   12    7     6     4    0.0000E+00  0.0000E+00   0.0000E+00  0.000E+00  0.000E+00  0.000E+00  1.02909E+03  0.000E+00  1.200E+01  6.000E-01  2.710E-01
   1   13    7     6     5    0.0000E+00 -7.7607E-01   7.7607E-01  0.000E+00  0.000E+00  0.000E+00  1.02601E+03  1.003E-01  1.200E+01  2.400E-01 -1.078E+00
   1   14    9     7     1    1.5000E+02  2.0452E+00   1.4795E+02  0.000E+00  0.000E+00  0.000E+00  1.03987E+03  2.286E+00  5.529E+01  5.592E+00  1.219E-01
   1   13    8     7     2    1.4795E+02  3.0073E+00   1.4495E+02  0.000E+00  0.000E+00  0.000E+00  1.03477E+03  2.272E+00  5.523E+01  6.144E+00  1.632E-01
   1   13    7     7     3    1.4495E+02  2.4217E+00   1.4253E+02  0.000E+00  0.000E+00  0.000E+00  1.02968E+03  2.258E+00  5.516E+01  5.578E+00  1.447E-01
   1   13    6     8     1    1.4330E+02  7.3548E-01   1.4257E+02  0.000E+00  0.000E+00  0.000E+00  1.02464E+03  2.766E+00  4.011E+01  4.088E+00  5.998E-02
   1   13    5     8     2    1.4257E+02 -2.0605E+00   1.4463E+02  0.000E+00  0.000E+00  0.000E+00  1.01840E+03  2.771E+00  4.018E+01  4.095E+00 -1.677E-01
   1   13    4     8     3    1.4463E+02 -3.7869E+00   1.4841E+02  0.000E+00  0.000E+00  0.000E+00  1.01217E+03  2.792E+00  4.049E+01  4.126E+00 -3.060E-01
   1   13    3     8     4    1.4841E+02 -4.0312E+00   1.5244E+02  0.000E+00  0.000E+00  0.000E+00  1.00594E+03  2.820E+00  4.089E+01  4.167E+00 -3.225E-01
   1   13    2     8     5    1.5244E+02 -2.0779E+00   1.5452E+02  0.000E+00  0.000E+00  0.000E+00  9.99716E+02  2.841E+00  4.120E+01  4.198E+00 -1.650E-01
   1   13    1     8     6    1.5452E+02 -5.1177E-01   1.5503E+02  0.000E+00  0.000E+00  0.000E+00  9.94725E+02  2.850E+00  4.133E+01  2.527E+00 -6.751E-02



 UBDSV3 SAVING "           GW ET" ON UNIT  61 AT TIME STEP  5, STRESS PERIOD  10
 UBDSV3 SAVING "    UZF RECHARGE" ON UNIT  61 AT TIME STEP  5, STRESS PERIOD  10
 UBDSV3 SAVING " SURFACE LEAKAGE" ON UNIT  61 AT TIME STEP  5, STRESS PERIOD  10
 UBDSV3 SAVING "       HORT+DUNN" ON UNIT  61 AT TIME STEP  5, STRESS PERIOD  10
 UBDSV3 SAVING "  STORAGE CHANGE" ON UNIT  61 AT TIME STEP  5, STRESS PERIOD  10


UNSATURATED ZONE PACKAGE VOLUMETRIC BUDGET FOR  TIME STEP     5 STRESS PERIOD   10
  ------------------------------------------------------------------------------



     CUMULATIVE VOLUMES      L**3       RATES FOR THIS TIME STEP      L**3/T
     ------------------                 ------------------------

           IN:                                      IN:
           ---                                      ---
        INFILTRATION =  1456258651.1899          INFILTRATION =          16.9500

          OUT:                                     OUT:
          ----                                     ----
              UZF ET =  1812786974.9272                UZF ET =          57.2844
        UZF RECHARGE =   311886470.9708          UZF RECHARGE =          12.3990

            IN - OUT =  -668414794.7081              IN - OUT =         -52.7334

          STORAGE:                                 STORAGE:
          --------                                 --------
      STORAGE CHANGE =  -668214043.8443        STORAGE CHANGE =         -52.7334

 PERCENT DISCREPANCY IS DIFFERENCE BETWEEN IN-OUT MINUS CHANGE IN STORAGE
 DIVIDED BY THE AVERAGE OF IN AND OUT TIMES 100

 PERCENT DISCREPANCY =          -0.00     PERCENT DISCREPANCY =          -0.00






1
  VOLUMETRIC BUDGET FOR ENTIRE MODEL AT END OF TIME STEP    5, STRESS PERIOD  10
  ------------------------------------------------------------------------------

     CUMULATIVE VOLUMES      L**3       RATES FOR THIS TIME STEP      L**3/T
     ------------------                 ------------------------

           IN:                                      IN:
           ---                                      ---
             STORAGE =    74656608.0000               STORAGE =           1.2047
       CONSTANT HEAD =           0.0000         CONSTANT HEAD =           0.0000
               WELLS =           0.0000                 WELLS =           0.0000
     HEAD DEP BOUNDS =     5046197.0000       HEAD DEP BOUNDS =           0.2090
      STREAM LEAKAGE =  1041730432.0000        STREAM LEAKAGE =          43.2097
        UZF RECHARGE =   311886496.0000          UZF RECHARGE =          12.3990
               GW ET =           0.0000                 GW ET =           0.0000
     SURFACE LEAKAGE =           0.0000       SURFACE LEAKAGE =           0.0000

            TOTAL IN =  1433319680.0000              TOTAL IN =          57.0224

          OUT:                                     OUT:
          ----                                     ----
             STORAGE =   372242784.0000               STORAGE =          25.2709
       CONSTANT HEAD =           0.0000         CONSTANT HEAD =           0.0000
               WELLS =   315359968.0000                 WELLS =           0.0000
     HEAD DEP BOUNDS =     6366873.5000       HEAD DEP BOUNDS =           0.2633
      STREAM LEAKAGE =   324679168.0000        STREAM LEAKAGE =          13.2444
        UZF RECHARGE =           0.0000          UZF RECHARGE =           0.0000
               GW ET =   414553792.0000                 GW ET =          18.2647
     SURFACE LEAKAGE =           0.0000       SURFACE LEAKAGE =           0.0000

           TOTAL OUT =  1433202560.0000             TOTAL OUT =          57.0432

            IN - OUT =      117120.0000              IN - OUT =      -2.0805E-02

 PERCENT DISCREPANCY =           0.01     PERCENT DISCREPANCY =          -0.04






         TIME SUMMARY AT END OF TIME STEP    5 IN STRESS PERIOD   10
                    SECONDS     MINUTES      HOURS       DAYS        YEARS
                    -----------------------------------------------------------
   TIME STEP LENGTH 1.21100E+05  2018.3      33.639      1.4016     3.83743E-03
 STRESS PERIOD TIME 5.04972E+05  8416.2      140.27      5.8446     1.60016E-02
         TOTAL TIME 2.41570E+07 4.02616E+05  6710.3      279.59     0.76549    
1
 
 SOLVING FOR HEAD 
     9 ITERATIONS FOR TIME STEP   6 IN STRESS PERIOD   10

 MAXIMUM HEAD CHANGE FOR EACH ITERATION:

    HEAD CHANGE   HEAD CHANGE   HEAD CHANGE   HEAD CHANGE   HEAD CHANGE
  LAYER,ROW,COL LAYER,ROW,COL LAYER,ROW,COL LAYER,ROW,COL LAYER,ROW,COL
 ----------------------------------------------------------------------
     0.2687E-01    0.1332E-01    0.6721E-02    0.3331E-02    0.1660E-02
  (  1,  5,  1) (  1,  5,  1) (  1,  5,  1) (  1,  5,  1) (  1,  5,  1)
     0.8285E-03    0.4137E-03    0.2268E-03    0.1156E-03
  (  1,  5,  1) (  1,  5,  1) (  1,  6,  1) (  1,  5,  1)


 NO OUTPUT CONTROL FOR STRESS PERIOD   10   TIME STEP    6
 
 SOLVING FOR HEAD 
     9 ITERATIONS FOR TIME STEP   7 IN STRESS PERIOD   10

 MAXIMUM HEAD CHANGE FOR EACH ITERATION:

    HEAD CHANGE   HEAD CHANGE   HEAD CHANGE   HEAD CHANGE   HEAD CHANGE
  LAYER,ROW,COL LAYER,ROW,COL LAYER,ROW,COL LAYER,ROW,COL LAYER,ROW,COL
 ----------------------------------------------------------------------
     0.2931E-01    0.1376E-01    0.6759E-02    0.3355E-02    0.1672E-02
  (  1,  8,  4) (  1,  5,  1) (  1,  5,  1) (  1,  5,  1) (  1,  5,  1)
     0.7896E-03    0.4306E-03    0.2483E-03    0.1261E-03
  (  1,  5,  1) (  1,  5,  1) (  1,  6,  1) (  1,  5,  1)


 NO OUTPUT CONTROL FOR STRESS PERIOD   10   TIME STEP    7
 
 SOLVING FOR HEAD 
     8 ITERATIONS FOR TIME STEP   8 IN STRESS PERIOD   10

 MAXIMUM HEAD CHANGE FOR EACH ITERATION:

    HEAD CHANGE   HEAD CHANGE   HEAD CHANGE   HEAD CHANGE   HEAD CHANGE
  LAYER,ROW,COL LAYER,ROW,COL LAYER,ROW,COL LAYER,ROW,COL LAYER,ROW,COL
 ----------------------------------------------------------------------
     0.3180E-01    0.1477E-01    0.7259E-02    0.3554E-02    0.1811E-02
  (  1,  8,  4) (  1,  5,  1) (  1,  5,  1) (  1,  5,  1) (  1,  5,  1)
     0.8628E-03    0.4722E-03    0.1947E-03
  (  1,  5,  1) (  1,  5,  1) (  1,  5,  1)


 NO OUTPUT CONTROL FOR STRESS PERIOD   10   TIME STEP    8
 
 SOLVING FOR HEAD 
     9 ITERATIONS FOR TIME STEP   9 IN STRESS PERIOD   10

 MAXIMUM HEAD CHANGE FOR EACH ITERATION:

    HEAD CHANGE   HEAD CHANGE   HEAD CHANGE   HEAD CHANGE   HEAD CHANGE
  LAYER,ROW,COL LAYER,ROW,COL LAYER,ROW,COL LAYER,ROW,COL LAYER,ROW,COL
 ----------------------------------------------------------------------
     0.3454E-01    0.1607E-01    0.7944E-02    0.3899E-02    0.1935E-02
  (  1,  8,  4) (  1,  5,  1) (  1,  5,  1) (  1,  5,  1) (  1,  5,  1)
     0.9370E-03    0.4625E-03    0.2572E-03    0.1065E-03
  (  1,  5,  1) (  1,  5,  1) (  1,  5,  1) (  1,  5,  1)


 NO OUTPUT CONTROL FOR STRESS PERIOD   10   TIME STEP    9
 
 SOLVING FOR HEAD 
     9 ITERATIONS FOR TIME STEP  10 IN STRESS PERIOD   10

 MAXIMUM HEAD CHANGE FOR EACH ITERATION:

    HEAD CHANGE   HEAD CHANGE   HEAD CHANGE   HEAD CHANGE   HEAD CHANGE
  LAYER,ROW,COL LAYER,ROW,COL LAYER,ROW,COL LAYER,ROW,COL LAYER,ROW,COL
 ----------------------------------------------------------------------
     0.3752E-01    0.1577E-01    0.7689E-02    0.3715E-02    0.1771E-02
  (  1,  8,  4) (  1,  5,  1) (  1,  5,  1) (  1,  5,  1) (  1,  5,  1)
     0.8980E-03    0.4212E-03    0.2052E-03    0.1016E-03
  (  1,  5,  1) (  1,  5,  1) (  1,  5,  1) (  1,  5,  1)


 OUTPUT CONTROL FOR STRESS PERIOD   10   TIME STEP   10
    PRINT BUDGET
    SAVE BUDGET

  HEAD DEP BOUNDS   PERIOD   10   STEP  10
 BOUNDARY      1   LAYER   1   ROW    13   COL     1   RATE   -0.263169    
 BOUNDARY      2   LAYER   1   ROW    14   COL     9   RATE    0.208980    



 STREAM LISTING     PERIOD     10   STEP       10

 LAYER ROW COL. STREAM  RCH.  FLOW INTO     FLOW TO   FLOW OUT OF   OVRLND.     DIRECT     STREAM       STREAM     STREAM     STREAM   STREAMBED  STREAMBED
                SEG.NO.  NO.  STRM. RCH.    AQUIFER    STRM. RCH.    RUNOFF     PRECIP       ET          HEAD       DEPTH      WIDTH   CONDCTNC.   GRADIENT

   1    1    1     1     1    2.5000E+01  1.0613E+00   2.3939E+01  0.000E+00  0.000E+00  0.000E+00  1.09422E+03  1.172E+00  1.296E+01  5.830E-01  6.068E-01
   1    2    2     1     2    2.3939E+01  3.0650E+00   2.0874E+01  0.000E+00  0.000E+00  0.000E+00  1.08920E+03  1.140E+00  1.253E+01  8.771E-01  1.165E+00
   1    3    3     1     3    2.0874E+01  2.9027E+00   1.7971E+01  0.000E+00  0.000E+00  0.000E+00  1.08351E+03  1.091E+00  1.183E+01  7.096E-01  1.364E+00
   1    3    4     1     4    1.7971E+01  2.4655E+00   1.5506E+01  0.000E+00  0.000E+00  0.000E+00  1.07845E+03  1.045E+00  1.098E+01  6.095E-01  1.348E+00
   1    4    5     2     1    5.5055E+00  2.6618E+00   2.8437E+00  0.000E+00  0.000E+00  0.000E+00  1.07235E+03  4.126E-01  1.200E+01  7.800E-01  1.138E+00
   1    5    6     2     2    2.8437E+00  1.9528E+00   8.9096E-01  0.000E+00  0.000E+00  0.000E+00  1.06676E+03  2.546E-01  1.200E+01  6.000E-01  1.085E+00
   1    6    6     2     3    8.9096E-01  8.9096E-01   0.0000E+00  0.000E+00  0.000E+00  0.000E+00  1.06183E+03  3.675E-02  1.200E+01  6.000E-01  1.012E+00
   1    7    6     2     4    0.0000E+00  0.0000E+00   0.0000E+00  0.000E+00  0.000E+00  0.000E+00  1.05708E+03  0.000E+00  1.200E+01  6.000E-01  1.000E+00
   1    8    6     2     5    0.0000E+00  0.0000E+00   0.0000E+00  0.000E+00  0.000E+00  0.000E+00  1.05236E+03  0.000E+00  1.200E+01  6.000E-01  1.000E+00
   1    3    5     3     1    1.0000E+01  2.8252E+00   7.1748E+00  0.000E+00  0.000E+00  0.000E+00  1.07555E+03  1.909E+00  9.636E+00  7.227E-01  1.955E+00
   1    3    6     3     2    7.1748E+00  1.7857E+00   5.3891E+00  0.000E+00  0.000E+00  0.000E+00  1.07264E+03  1.727E+00  8.909E+00  6.682E-01  1.336E+00
   1    3    7     3     3    5.3891E+00  8.2847E-01   4.5606E+00  0.000E+00  0.000E+00  0.000E+00  1.06987E+03  1.555E+00  8.218E+00  5.547E-01  7.467E-01
   1    4    8     3     4    4.5606E+00  1.5568E+00   3.0038E+00  0.000E+00  0.000E+00  0.000E+00  1.06682E+03  1.364E+00  7.455E+00  6.709E-01  1.160E+00
   1    5    8     3     5    3.0038E+00  1.5790E+00   1.4249E+00  0.000E+00  0.000E+00  0.000E+00  1.06362E+03  1.164E+00  6.655E+00  4.991E-01  1.582E+00
   1    6    8     3     6    1.4249E+00  5.5980E-01   8.6506E-01  0.000E+00  0.000E+00  0.000E+00  1.06158E+03  1.036E+00  6.145E+00  1.844E-01  1.518E+00
   1    5   10     4     1    1.0000E+01  9.0525E-01   9.0947E+00  0.000E+00  0.000E+00  0.000E+00  1.07835E+03  6.210E-01  1.000E+01  2.500E-01  1.207E+00
   1    5    9     4     2    9.0947E+00  1.7835E+00   7.3113E+00  0.000E+00  0.000E+00  0.000E+00  1.07148E+03  5.670E-01  1.000E+01  5.000E-01  1.189E+00
   1    6    8     4     3    7.3113E+00  1.2257E+00   6.0855E+00  0.000E+00  0.000E+00  0.000E+00  1.06368E+03  5.021E-01  1.000E+01  3.500E-01  1.167E+00
   1    6    8     5     1    6.9506E+00  8.8364E-01   6.0670E+00  0.000E+00  0.000E+00  0.000E+00  1.05858E+03  5.779E-01  1.169E+01  4.677E-01  6.298E-01
   1    7    7     5     2    6.0670E+00  1.7651E+00   4.3019E+00  0.000E+00  0.000E+00  0.000E+00  1.05403E+03  5.337E-01  1.020E+01  5.100E-01  1.154E+00
   1    8    7     5     3    4.3019E+00  1.0285E+00   3.2734E+00  0.000E+00  0.000E+00  0.000E+00  1.04973E+03  4.781E-01  8.449E+00  2.957E-01  1.159E+00
   1    8    6     5     4    3.2734E+00  6.2646E-01   2.6469E+00  0.000E+00  0.000E+00  0.000E+00  1.04669E+03  4.386E-01  7.287E+00  1.822E-01  1.146E+00
   1    9    6     6     1    2.6469E+00  1.9447E+00   7.0220E-01  0.000E+00  0.000E+00  0.000E+00  1.04297E+03  2.412E-01  1.200E+01  6.000E-01  1.080E+00
   1   10    7     6     2    7.0220E-01  7.0220E-01   0.0000E+00  0.000E+00  0.000E+00  0.000E+00  1.03821E+03  3.221E-02  1.200E+01  6.000E-01  1.011E+00
   1   11    7     6     3    0.0000E+00  0.0000E+00   0.0000E+00  0.000E+00  0.000E+00  0.000E+00  1.03364E+03  0.000E+00  1.200E+01  6.000E-01  1.000E+00
   1   12    7     6     4    0.0000E+00  0.0000E+00   0.0000E+00  0.000E+00  0.000E+00  0.000E+00  1.02909E+03  0.000E+00  1.200E+01  6.000E-01  2.688E-01
   1   13    7     6     5    0.0000E+00 -7.7594E-01   7.7594E-01  0.000E+00  0.000E+00  0.000E+00  1.02601E+03  1.003E-01  1.200E+01  2.400E-01 -1.078E+00
   1   14    9     7     1    1.5000E+02  2.0466E+00   1.4795E+02  0.000E+00  0.000E+00  0.000E+00  1.03987E+03  2.286E+00  5.529E+01  5.592E+00  1.220E-01
   1   13    8     7     2    1.4795E+02  3.0101E+00   1.4494E+02  0.000E+00  0.000E+00  0.000E+00  1.03477E+03  2.272E+00  5.523E+01  6.144E+00  1.633E-01
   1   13    7     7     3    1.4494E+02  2.4246E+00   1.4252E+02  0.000E+00  0.000E+00  0.000E+00  1.02968E+03  2.258E+00  5.516E+01  5.578E+00  1.449E-01
   1   13    6     8     1    1.4329E+02  7.3550E-01   1.4256E+02  0.000E+00  0.000E+00  0.000E+00  1.02464E+03  2.766E+00  4.011E+01  4.087E+00  5.998E-02
   1   13    5     8     2    1.4256E+02 -2.0654E+00   1.4462E+02  0.000E+00  0.000E+00  0.000E+00  1.01840E+03  2.771E+00  4.018E+01  4.095E+00 -1.681E-01
   1   13    4     8     3    1.4462E+02 -3.7863E+00   1.4841E+02  0.000E+00  0.000E+00  0.000E+00  1.01217E+03  2.792E+00  4.049E+01  4.126E+00 -3.059E-01
   1   13    3     8     4    1.4841E+02 -4.0303E+00   1.5244E+02  0.000E+00  0.000E+00  0.000E+00  1.00594E+03  2.820E+00  4.089E+01  4.167E+00 -3.224E-01
   1   13    2     8     5    1.5244E+02 -2.0756E+00   1.5452E+02  0.000E+00  0.000E+00  0.000E+00  9.99716E+02  2.841E+00  4.120E+01  4.198E+00 -1.648E-01
   1   13    1     8     6    1.5452E+02 -5.0638E-01   1.5502E+02  0.000E+00  0.000E+00  0.000E+00  9.94725E+02  2.850E+00  4.133E+01  2.527E+00 -6.680E-02



 UBDSV3 SAVING "           GW ET" ON UNIT  61 AT TIME STEP 10, STRESS PERIOD  10
 UBDSV3 SAVING "    UZF RECHARGE" ON UNIT  61 AT TIME STEP 10, STRESS PERIOD  10
 UBDSV3 SAVING " SURFACE LEAKAGE" ON UNIT  61 AT TIME STEP 10, STRESS PERIOD  10
 UBDSV3 SAVING "       HORT+DUNN" ON UNIT  61 AT TIME STEP 10, STRESS PERIOD  10
 UBDSV3 SAVING "  STORAGE CHANGE" ON UNIT  61 AT TIME STEP 10, STRESS PERIOD  10


UNSATURATED ZONE PACKAGE VOLUMETRIC BUDGET FOR  TIME STEP    10 STRESS PERIOD   10
  ------------------------------------------------------------------------------



     CUMULATIVE VOLUMES      L**3       RATES FOR THIS TIME STEP      L**3/T
     ------------------                 ------------------------

           IN:                                      IN:
           ---                                      ---
        INFILTRATION =  1470043439.0542          INFILTRATION =          16.9500

          OUT:                                     OUT:
          ----                                     ----
              UZF ET =  1858990227.9795                UZF ET =          56.5424
        UZF RECHARGE =   321480728.7318          UZF RECHARGE =          11.3716

            IN - OUT =  -710427517.6571              IN - OUT =         -50.9640

          STORAGE:                                 STORAGE:
          --------                                 --------
      STORAGE CHANGE =  -710224510.4085        STORAGE CHANGE =         -50.9626

 PERCENT DISCREPANCY IS DIFFERENCE BETWEEN IN-OUT MINUS CHANGE IN STORAGE
 DIVIDED BY THE AVERAGE OF IN AND OUT TIMES 100

 PERCENT DISCREPANCY =          -0.00     PERCENT DISCREPANCY =          -0.00






1
  VOLUMETRIC BUDGET FOR ENTIRE MODEL AT END OF TIME STEP   10, STRESS PERIOD  10
  ------------------------------------------------------------------------------

     CUMULATIVE VOLUMES      L**3       RATES FOR THIS TIME STEP      L**3/T
     ------------------                 ------------------------

           IN:                                      IN:
           ---                                      ---
             STORAGE =    75735080.0000               STORAGE =           1.3558
       CONSTANT HEAD =           0.0000         CONSTANT HEAD =           0.0000
               WELLS =           0.0000                 WELLS =           0.0000
     HEAD DEP BOUNDS =     5216149.0000       HEAD DEP BOUNDS =           0.2090
      STREAM LEAKAGE =  1076874624.0000        STREAM LEAKAGE =          43.2168
        UZF RECHARGE =   321480704.0000          UZF RECHARGE =          11.3716
               GW ET =           0.0000                 GW ET =           0.0000
     SURFACE LEAKAGE =           0.0000       SURFACE LEAKAGE =           0.0000

            TOTAL IN =  1479306496.0000              TOTAL IN =          56.1532

          OUT:                                     OUT:
          ----                                     ----
             STORAGE =   392360032.0000               STORAGE =          24.3341
       CONSTANT HEAD =           0.0000         CONSTANT HEAD =           0.0000
               WELLS =   315359968.0000                 WELLS =           0.0000
     HEAD DEP BOUNDS =     6580924.0000       HEAD DEP BOUNDS =           0.2632
      STREAM LEAKAGE =   335449216.0000        STREAM LEAKAGE =          13.2399
        UZF RECHARGE =           0.0000          UZF RECHARGE =           0.0000
               GW ET =   429416544.0000                 GW ET =          18.2828
     SURFACE LEAKAGE =           0.0000       SURFACE LEAKAGE =           0.0000

           TOTAL OUT =  1479166720.0000             TOTAL OUT =          56.1200

            IN - OUT =      139776.0000              IN - OUT =       3.3203E-02

 PERCENT DISCREPANCY =           0.01     PERCENT DISCREPANCY =           0.06






         TIME SUMMARY AT END OF TIME STEP   10 IN STRESS PERIOD   10
                    SECONDS     MINUTES      HOURS       DAYS        YEARS
                    -----------------------------------------------------------
   TIME STEP LENGTH 1.95033E+05  3250.6      54.176      2.2573     6.18023E-03
 STRESS PERIOD TIME 1.31823E+06  21971.      366.18      15.257     4.17723E-02
         TOTAL TIME 2.49702E+07 4.16170E+05  6936.2      289.01     0.79126    
1
 
 SOLVING FOR HEAD 
     9 ITERATIONS FOR TIME STEP  11 IN STRESS PERIOD   10

 MAXIMUM HEAD CHANGE FOR EACH ITERATION:

    HEAD CHANGE   HEAD CHANGE   HEAD CHANGE   HEAD CHANGE   HEAD CHANGE
  LAYER,ROW,COL LAYER,ROW,COL LAYER,ROW,COL LAYER,ROW,COL LAYER,ROW,COL
 ----------------------------------------------------------------------
     0.4063E-01    0.1607E-01    0.7804E-02    0.3755E-02    0.1815E-02
  (  1,  8,  4) (  1,  5,  1) (  1,  5,  1) (  1,  5,  1) (  1,  5,  1)
     0.8943E-03    0.4447E-03    0.2218E-03    0.1111E-03
  (  1,  5,  1) (  1,  5,  1) (  1,  5,  1) (  1,  5,  1)


 NO OUTPUT CONTROL FOR STRESS PERIOD   10   TIME STEP   11
 
 SOLVING FOR HEAD 
    10 ITERATIONS FOR TIME STEP  12 IN STRESS PERIOD   10

 MAXIMUM HEAD CHANGE FOR EACH ITERATION:

    HEAD CHANGE   HEAD CHANGE   HEAD CHANGE   HEAD CHANGE   HEAD CHANGE
  LAYER,ROW,COL LAYER,ROW,COL LAYER,ROW,COL LAYER,ROW,COL LAYER,ROW,COL
 ----------------------------------------------------------------------
     0.4922E-01    0.2448E-01    0.1221E-01    0.6099E-02    0.3048E-02
  (  1,  7,  1) (  1,  7,  1) (  1,  7,  1) (  1,  7,  1) (  1,  7,  1)
     0.1488E-02    0.7360E-03    0.3666E-03    0.2195E-03    0.1168E-03
  (  1,  7,  1) (  1,  7,  1) (  1,  7,  1) (  1,  7,  1) (  1,  7,  1)


 NO OUTPUT CONTROL FOR STRESS PERIOD   10   TIME STEP   12
 
 SOLVING FOR HEAD 
     9 ITERATIONS FOR TIME STEP  13 IN STRESS PERIOD   10

 MAXIMUM HEAD CHANGE FOR EACH ITERATION:

    HEAD CHANGE   HEAD CHANGE   HEAD CHANGE   HEAD CHANGE   HEAD CHANGE
  LAYER,ROW,COL LAYER,ROW,COL LAYER,ROW,COL LAYER,ROW,COL LAYER,ROW,COL
 ----------------------------------------------------------------------
     0.5157E-01    0.2560E-01    0.1268E-01    0.6234E-02    0.3095E-02
  (  1,  7,  1) (  1,  7,  1) (  1,  7,  1) (  1,  7,  1) (  1,  7,  1)
     0.1503E-02    0.7826E-03    0.3977E-03    0.1596E-03
  (  1,  7,  1) (  1,  7,  1) (  1,  7,  1) (  1,  7,  1)


 NO OUTPUT CONTROL FOR STRESS PERIOD   10   TIME STEP   13
 
 SOLVING FOR HEAD 
     9 ITERATIONS FOR TIME STEP  14 IN STRESS PERIOD   10

 MAXIMUM HEAD CHANGE FOR EACH ITERATION:

    HEAD CHANGE   HEAD CHANGE   HEAD CHANGE   HEAD CHANGE   HEAD CHANGE
  LAYER,ROW,COL LAYER,ROW,COL LAYER,ROW,COL LAYER,ROW,COL LAYER,ROW,COL
 ----------------------------------------------------------------------
     0.5435E-01    0.2687E-01    0.1324E-01    0.6536E-02    0.3163E-02
  (  1,  7,  1) (  1,  7,  1) (  1,  7,  1) (  1,  7,  1) (  1,  7,  1)
     0.1604E-02    0.7623E-03    0.4170E-03    0.1719E-03
  (  1,  7,  1) (  1,  7,  1) (  1,  7,  1) (  1,  7,  1)


 NO OUTPUT CONTROL FOR STRESS PERIOD   10   TIME STEP   14
 
 SOLVING FOR HEAD 
     9 ITERATIONS FOR TIME STEP  15 IN STRESS PERIOD   10

 MAXIMUM HEAD CHANGE FOR EACH ITERATION:

    HEAD CHANGE   HEAD CHANGE   HEAD CHANGE   HEAD CHANGE   HEAD CHANGE
  LAYER,ROW,COL LAYER,ROW,COL LAYER,ROW,COL LAYER,ROW,COL LAYER,ROW,COL
 ----------------------------------------------------------------------
     0.5497E-01    0.2713E-01    0.1339E-01    0.6563E-02    0.3254E-02
  (  1,  7,  1) (  1,  7,  1) (  1,  7,  1) (  1,  7,  1) (  1,  7,  1)
     0.1622E-02    0.8090E-03    0.3916E-03    0.1755E-03
  (  1,  7,  1) (  1,  7,  1) (  1, 15,  6) (  1, 15,  6)


 OUTPUT CONTROL FOR STRESS PERIOD   10   TIME STEP   15
    PRINT BUDGET
    PRINT HEAD FOR ALL LAYERS
    SAVE HEAD FOR ALL LAYERS
    SAVE BUDGET

  HEAD DEP BOUNDS   PERIOD   10   STEP  15
 BOUNDARY      1   LAYER   1   ROW    13   COL     1   RATE   -0.263079    
 BOUNDARY      2   LAYER   1   ROW    14   COL     9   RATE    0.209078    



 STREAM LISTING     PERIOD     10   STEP       15

 LAYER ROW COL. STREAM  RCH.  FLOW INTO     FLOW TO   FLOW OUT OF   OVRLND.     DIRECT     STREAM       STREAM     STREAM     STREAM   STREAMBED  STREAMBED
                SEG.NO.  NO.  STRM. RCH.    AQUIFER    STRM. RCH.    RUNOFF     PRECIP       ET          HEAD       DEPTH      WIDTH   CONDCTNC.   GRADIENT

   1    1    1     1     1    2.5000E+01  1.0640E+00   2.3936E+01  0.000E+00  0.000E+00  0.000E+00  1.09422E+03  1.172E+00  1.296E+01  5.830E-01  6.083E-01
   1    2    2     1     2    2.3936E+01  3.0662E+00   2.0870E+01  0.000E+00  0.000E+00  0.000E+00  1.08920E+03  1.140E+00  1.253E+01  8.770E-01  1.165E+00
   1    3    3     1     3    2.0870E+01  2.9024E+00   1.7967E+01  0.000E+00  0.000E+00  0.000E+00  1.08351E+03  1.091E+00  1.183E+01  7.095E-01  1.364E+00
   1    3    4     1     4    1.7967E+01  2.4652E+00   1.5502E+01  0.000E+00  0.000E+00  0.000E+00  1.07845E+03  1.045E+00  1.098E+01  6.095E-01  1.348E+00
   1    4    5     2     1    5.5023E+00  2.6617E+00   2.8406E+00  0.000E+00  0.000E+00  0.000E+00  1.07235E+03  4.124E-01  1.200E+01  7.800E-01  1.137E+00
   1    5    6     2     2    2.8406E+00  1.9526E+00   8.8797E-01  0.000E+00  0.000E+00  0.000E+00  1.06676E+03  2.544E-01  1.200E+01  6.000E-01  1.085E+00
   1    6    6     2     3    8.8797E-01  8.8797E-01   0.0000E+00  0.000E+00  0.000E+00  0.000E+00  1.06183E+03  3.667E-02  1.200E+01  6.000E-01  1.012E+00
   1    7    6     2     4    0.0000E+00  0.0000E+00   0.0000E+00  0.000E+00  0.000E+00  0.000E+00  1.05708E+03  0.000E+00  1.200E+01  6.000E-01  1.000E+00
   1    8    6     2     5    0.0000E+00  0.0000E+00   0.0000E+00  0.000E+00  0.000E+00  0.000E+00  1.05236E+03  0.000E+00  1.200E+01  6.000E-01  1.000E+00
   1    3    5     3     1    1.0000E+01  2.8252E+00   7.1748E+00  0.000E+00  0.000E+00  0.000E+00  1.07555E+03  1.909E+00  9.636E+00  7.227E-01  1.955E+00
   1    3    6     3     2    7.1748E+00  1.8365E+00   5.3383E+00  0.000E+00  0.000E+00  0.000E+00  1.07264E+03  1.727E+00  8.909E+00  6.682E-01  1.374E+00
   1    3    7     3     3    5.3383E+00  8.6728E-01   4.4710E+00  0.000E+00  0.000E+00  0.000E+00  1.06987E+03  1.555E+00  8.218E+00  5.547E-01  7.817E-01
   1    4    8     3     4    4.4710E+00  1.5608E+00   2.9102E+00  0.000E+00  0.000E+00  0.000E+00  1.06682E+03  1.364E+00  7.455E+00  6.709E-01  1.163E+00
   1    5    8     3     5    2.9102E+00  1.5790E+00   1.3313E+00  0.000E+00  0.000E+00  0.000E+00  1.06362E+03  1.164E+00  6.655E+00  4.991E-01  1.582E+00
   1    6    8     3     6    1.3313E+00  5.5980E-01   7.7145E-01  0.000E+00  0.000E+00  0.000E+00  1.06158E+03  1.036E+00  6.145E+00  1.844E-01  1.518E+00
   1    5   10     4     1    1.0000E+01  9.0525E-01   9.0947E+00  0.000E+00  0.000E+00  0.000E+00  1.07835E+03  6.210E-01  1.000E+01  2.500E-01  1.207E+00
   1    5    9     4     2    9.0947E+00  1.7835E+00   7.3113E+00  0.000E+00  0.000E+00  0.000E+00  1.07148E+03  5.670E-01  1.000E+01  5.000E-01  1.189E+00
   1    6    8     4     3    7.3113E+00  1.2257E+00   6.0855E+00  0.000E+00  0.000E+00  0.000E+00  1.06368E+03  5.021E-01  1.000E+01  3.500E-01  1.167E+00
   1    6    8     5     1    6.8570E+00  8.6435E-01   5.9926E+00  0.000E+00  0.000E+00  0.000E+00  1.05858E+03  5.753E-01  1.160E+01  4.640E-01  6.209E-01
   1    7    7     5     2    5.9926E+00  1.7225E+00   4.2702E+00  0.000E+00  0.000E+00  0.000E+00  1.05403E+03  5.317E-01  1.014E+01  5.069E-01  1.133E+00
   1    8    7     5     3    4.2702E+00  1.0234E+00   3.2468E+00  0.000E+00  0.000E+00  0.000E+00  1.04973E+03  4.768E-01  8.410E+00  2.944E-01  1.159E+00
   1    8    6     5     4    3.2468E+00  6.1196E-01   2.6348E+00  0.000E+00  0.000E+00  0.000E+00  1.04669E+03  4.376E-01  7.259E+00  1.815E-01  1.124E+00
   1    9    6     6     1    2.6348E+00  1.9441E+00   6.9073E-01  0.000E+00  0.000E+00  0.000E+00  1.04297E+03  2.401E-01  1.200E+01  6.000E-01  1.080E+00
   1   10    7     6     2    6.9073E-01  6.9073E-01   0.0000E+00  0.000E+00  0.000E+00  0.000E+00  1.03821E+03  3.190E-02  1.200E+01  6.000E-01  1.011E+00
   1   11    7     6     3    0.0000E+00  0.0000E+00   0.0000E+00  0.000E+00  0.000E+00  0.000E+00  1.03364E+03  0.000E+00  1.200E+01  6.000E-01  1.000E+00
   1   12    7     6     4    0.0000E+00  0.0000E+00   0.0000E+00  0.000E+00  0.000E+00  0.000E+00  1.02909E+03  0.000E+00  1.200E+01  6.000E-01  2.659E-01
   1   13    7     6     5    0.0000E+00 -7.7591E-01   7.7591E-01  0.000E+00  0.000E+00  0.000E+00  1.02601E+03  1.003E-01  1.200E+01  2.400E-01 -1.078E+00
   1   14    9     7     1    1.5000E+02  2.0608E+00   1.4794E+02  0.000E+00  0.000E+00  0.000E+00  1.03987E+03  2.286E+00  5.529E+01  5.592E+00  1.228E-01
   1   13    8     7     2    1.4794E+02  3.0263E+00   1.4491E+02  0.000E+00  0.000E+00  0.000E+00  1.03477E+03  2.272E+00  5.523E+01  6.144E+00  1.642E-01
   1   13    7     7     3    1.4491E+02  2.4245E+00   1.4249E+02  0.000E+00  0.000E+00  0.000E+00  1.02968E+03  2.258E+00  5.516E+01  5.578E+00  1.449E-01
   1   13    6     8     1    1.4326E+02  7.0326E-01   1.4256E+02  0.000E+00  0.000E+00  0.000E+00  1.02464E+03  2.766E+00  4.011E+01  4.087E+00  5.735E-02
   1   13    5     8     2    1.4256E+02 -2.0590E+00   1.4462E+02  0.000E+00  0.000E+00  0.000E+00  1.01840E+03  2.771E+00  4.018E+01  4.095E+00 -1.676E-01
   1   13    4     8     3    1.4462E+02 -3.7760E+00   1.4840E+02  0.000E+00  0.000E+00  0.000E+00  1.01217E+03  2.792E+00  4.049E+01  4.126E+00 -3.051E-01
   1   13    3     8     4    1.4840E+02 -4.0096E+00   1.5241E+02  0.000E+00  0.000E+00  0.000E+00  1.00594E+03  2.820E+00  4.089E+01  4.166E+00 -3.208E-01
   1   13    2     8     5    1.5241E+02 -2.0643E+00   1.5447E+02  0.000E+00  0.000E+00  0.000E+00  9.99716E+02  2.841E+00  4.119E+01  4.198E+00 -1.639E-01
   1   13    1     8     6    1.5447E+02 -5.0115E-01   1.5497E+02  0.000E+00  0.000E+00  0.000E+00  9.94725E+02  2.850E+00  4.132E+01  2.526E+00 -6.612E-02



 UBDSV3 SAVING "           GW ET" ON UNIT  61 AT TIME STEP 15, STRESS PERIOD  10
 UBDSV3 SAVING "    UZF RECHARGE" ON UNIT  61 AT TIME STEP 15, STRESS PERIOD  10
 UBDSV3 SAVING " SURFACE LEAKAGE" ON UNIT  61 AT TIME STEP 15, STRESS PERIOD  10
 UBDSV3 SAVING "       HORT+DUNN" ON UNIT  61 AT TIME STEP 15, STRESS PERIOD  10
 UBDSV3 SAVING "  STORAGE CHANGE" ON UNIT  61 AT TIME STEP 15, STRESS PERIOD  10


UNSATURATED ZONE PACKAGE VOLUMETRIC BUDGET FOR  TIME STEP    15 STRESS PERIOD   10
  ------------------------------------------------------------------------------



     CUMULATIVE VOLUMES      L**3       RATES FOR THIS TIME STEP      L**3/T
     ------------------                 ------------------------

           IN:                                      IN:
           ---                                      ---
        INFILTRATION =  1492243978.6206          INFILTRATION =          16.9500

          OUT:                                     OUT:
          ----                                     ----
              UZF ET =  1930648530.8032                UZF ET =          52.0328
        UZF RECHARGE =   337032528.7657          UZF RECHARGE =          12.1193

            IN - OUT =  -775437080.9483              IN - OUT =         -47.2021

          STORAGE:                                 STORAGE:
          --------                                 --------
      STORAGE CHANGE =  -775224160.5912        STORAGE CHANGE =         -47.1850

 PERCENT DISCREPANCY IS DIFFERENCE BETWEEN IN-OUT MINUS CHANGE IN STORAGE
 DIVIDED BY THE AVERAGE OF IN AND OUT TIMES 100

 PERCENT DISCREPANCY =          -0.00     PERCENT DISCREPANCY =          -0.03






1
              HEAD IN LAYER   1 AT END OF TIME STEP  15 IN STRESS PERIOD   10
  ---------------------------------------------------------------------------

           1       2       3       4       5       6       7       8       9      10
 ...................................................................................
   1  1092.40 1088.64 6999.00 6999.00 6999.00 6999.00 6999.00 6999.00 6999.00 6999.00
   2  1089.05 1085.70 1079.27 6999.00 6999.00 1073.85 1072.79 1070.88 6999.00 6999.00
   3  6999.00 1077.38 1074.49 1070.37 1071.10 1069.89 1068.31 1067.98 6999.00 6999.00
   4  1069.16 1068.59 1066.96 1063.56 1062.41 1061.10 1061.73 1064.49 1063.89 6999.00
   5  1064.71 1061.55 1059.16 1057.46 1057.16 1057.63 1057.45 1059.52 1062.97 1065.37
   6  1059.98 1055.67 1052.95 1051.85 1052.07 1053.21 1054.37 1056.71 1059.50 1063.70
   7  1055.88 1050.01 1047.23 1046.47 1046.98 1048.36 1050.63 1052.96 1054.28 6999.00
   8  6999.00 1042.67 1041.20 1041.00 1041.75 1043.32 1044.99 1047.39 1049.24 6999.00
   9  6999.00 1035.70 1035.18 1035.56 1036.62 1038.37 1039.15 1040.95 1043.81 6999.00
  10  6999.00 1028.61 1029.06 1030.36 1031.70 1033.27 1034.49 1036.40 1040.09 1044.40
  11  6999.00 1019.75 1021.49 1025.10 1027.11 1029.12 1030.60 1032.91 1036.35 6999.00
  12  1001.20 1008.86 1014.12 1019.01 1022.66 1025.88 1028.29 1031.05 1034.89 6999.00
  13   994.92 1000.21 1006.91 1013.08 1018.90 1024.47 1029.24 1034.28 1036.39 6999.00
  14  6999.00 1005.83 1011.45 1016.17 1021.20 1025.89 1030.18 1035.25 1039.50 6999.00
  15  6999.00 6999.00 1018.84 1021.83 1025.57 1028.63 6999.00 6999.00 6999.00 6999.00

 HEAD WILL BE SAVED ON UNIT   58 AT END OF TIME STEP   15, STRESS PERIOD   10
1
  VOLUMETRIC BUDGET FOR ENTIRE MODEL AT END OF TIME STEP   15, STRESS PERIOD  10
  ------------------------------------------------------------------------------

     CUMULATIVE VOLUMES      L**3       RATES FOR THIS TIME STEP      L**3/T
     ------------------                 ------------------------

           IN:                                      IN:
           ---                                      ---
             STORAGE =    77472928.0000               STORAGE =           1.2942
       CONSTANT HEAD =           0.0000         CONSTANT HEAD =           0.0000
               WELLS =           0.0000                 WELLS =           0.0000
     HEAD DEP BOUNDS =     5489916.5000       HEAD DEP BOUNDS =           0.2091
      STREAM LEAKAGE =  1133469568.0000        STREAM LEAKAGE =          43.2149
        UZF RECHARGE =   337032480.0000          UZF RECHARGE =          12.1193
               GW ET =           0.0000                 GW ET =           0.0000
     SURFACE LEAKAGE =           0.0000       SURFACE LEAKAGE =           0.0000

            TOTAL IN =  1553464832.0000              TOTAL IN =          56.8374

          OUT:                                     OUT:
          ----                                     ----
             STORAGE =   424697760.0000               STORAGE =          24.7251
       CONSTANT HEAD =           0.0000         CONSTANT HEAD =           0.0000
               WELLS =   315359968.0000                 WELLS =           0.0000
     HEAD DEP BOUNDS =     6925543.0000       HEAD DEP BOUNDS =           0.2631
      STREAM LEAKAGE =   352751424.0000        STREAM LEAKAGE =          13.1861
        UZF RECHARGE =           0.0000          UZF RECHARGE =           0.0000
               GW ET =   453603424.0000                 GW ET =          18.6878
     SURFACE LEAKAGE =           0.0000       SURFACE LEAKAGE =           0.0000

           TOTAL OUT =  1553338240.0000             TOTAL OUT =          56.8620

            IN - OUT =      126592.0000              IN - OUT =      -2.4612E-02

 PERCENT DISCREPANCY =           0.01     PERCENT DISCREPANCY =          -0.04






         TIME SUMMARY AT END OF TIME STEP   15 IN STRESS PERIOD   10
                    SECONDS     MINUTES      HOURS       DAYS        YEARS
                    -----------------------------------------------------------
   TIME STEP LENGTH 3.14103E+05  5235.0      87.251      3.6354     9.95332E-03
 STRESS PERIOD TIME 2.62800E+06  43800.      730.00      30.417     8.32763E-02
         TOTAL TIME 2.62800E+07 4.38000E+05  7300.0      304.17     0.83276    
1
1
                            STRESS PERIOD NO.   11, LENGTH =   2628000.    
                            -----------------------------------------------

                              NUMBER OF TIME STEPS =    15

                               MULTIPLIER FOR DELT =     1.100

                            INITIAL TIME STEP SIZE =   82713.07    

 WELL NO.  LAYER   ROW   COL   STRESS RATE         
 --------------------------------------------------
      1      1      6      4      -3.000    
      2      1      6      5      -3.000    
      3      1      7      4      -3.000    
      4      1      7      5      -3.000    
      5      1      8      4      -3.000    
      6      1      8      5      -3.000    
      7      1      9      4      -3.000    
      8      1      9      5      -3.000    
      9      1     10      4      -3.000    
     10      1     10      5      -3.000    

     10 WELLS

 REUSING NON-PARAMETER GHB CELLS FROM LAST STRESS PERIOD

      2 GHB CELLS

 REUSING STREAM SEGMENT DATA FROM LAST STRESS PERIOD



            AREAL INFILTRATION RATE
 READING ON UNIT   19 WITH FORMAT: (10F4.0)            

            1           2           3           4           5           6           7           8           9          10
 ........................................................................................................................
   1   1.0000E-09  2.0000E-09   0.000       0.000       0.000       0.000       0.000       0.000       0.000       0.000    
   2   2.0000E-09  1.0000E-09  2.0000E-09   0.000       0.000      8.0000E-09  8.0000E-09  5.0000E-09   0.000       0.000    
   3    0.000      5.0000E-09  1.0000E-09  1.0000E-09  8.0000E-09  8.0000E-09  5.0000E-09  5.0000E-09   0.000       0.000    
   4   8.0000E-09  5.0000E-09  1.0000E-09  1.0000E-09  1.0000E-09  1.0000E-09  1.0000E-09  1.0000E-09  2.0000E-09   0.000    
   5   8.0000E-09  5.0000E-09  1.0000E-09  1.0000E-09  1.0000E-09  1.0000E-09  1.0000E-09  1.0000E-09  1.0000E-09  1.0000E-09
   6   8.0000E-09  5.0000E-09  5.0000E-09  2.0000E-09  2.0000E-09  1.0000E-09  1.0000E-09  1.0000E-09  1.0000E-09  5.0000E-09
   7   8.0000E-09  5.0000E-09  5.0000E-09  2.0000E-09  2.0000E-09  1.0000E-09  1.0000E-09  2.0000E-09  2.0000E-09   0.000    
   8    0.000      5.0000E-09  5.0000E-09  2.0000E-09  2.0000E-09  1.0000E-09  1.0000E-09  2.0000E-09  5.0000E-09   0.000    
   9    0.000      5.0000E-09  5.0000E-09  2.0000E-09  2.0000E-09  1.0000E-09  1.0000E-09  2.0000E-09  5.0000E-09   0.000    
  10    0.000      5.0000E-09  5.0000E-09  2.0000E-09  2.0000E-09  1.0000E-09  1.0000E-09  2.0000E-09  5.0000E-09  8.0000E-09
  11    0.000      1.0000E-09  1.0000E-09  1.0000E-09  1.0000E-09  1.0000E-09  1.0000E-09  2.0000E-09  5.0000E-09   0.000    
  12   1.0000E-09  1.0000E-09  1.0000E-09  1.0000E-09  1.0000E-09  1.0000E-09  1.0000E-09  1.0000E-09  2.0000E-09   0.000    
  13   1.0000E-09  1.0000E-09  2.0000E-09  2.0000E-09  2.0000E-09  2.0000E-09  2.0000E-09  1.0000E-09  1.0000E-09   0.000    
  14    0.000      2.0000E-09  5.0000E-09  5.0000E-09  5.0000E-09  5.0000E-09  5.0000E-09  2.0000E-09  1.0000E-09   0.000    
  15    0.000       0.000      8.0000E-09  8.0000E-09  8.0000E-09  8.0000E-09   0.000       0.000       0.000       0.000    

USING ET RATE FROM PREVIOUS STRESS PERIOD. CURRENT PERIOD IS:      11

 USING ET EXTINCTION DEPTH FROM PREVIOUS STRESS PERIOD. CURRENT PERIOD IS:      11

 USING EXTINCTION WATER CONTENT FROM PREVIOUS STRESS PERIOD. CURRENT PERIOD IS:      11
 
 SOLVING FOR HEAD 

     8 ITERATIONS FOR TIME STEP   1 IN STRESS PERIOD   11

 MAXIMUM HEAD CHANGE FOR EACH ITERATION:

    HEAD CHANGE   HEAD CHANGE   HEAD CHANGE   HEAD CHANGE   HEAD CHANGE
  LAYER,ROW,COL LAYER,ROW,COL LAYER,ROW,COL LAYER,ROW,COL LAYER,ROW,COL
 ----------------------------------------------------------------------
    -0.2917E-01    0.7259E-02    0.3617E-02    0.1755E-02    0.8666E-03
  (  1,  6,  5) (  1, 15,  6) (  1, 15,  6) (  1, 15,  6) (  1, 15,  6)
     0.4311E-03    0.2409E-03    0.9974E-04
  (  1, 15,  6) (  1, 15,  6) (  1, 15,  6)


 NO OUTPUT CONTROL FOR STRESS PERIOD   11   TIME STEP    1
 
 SOLVING FOR HEAD 
     8 ITERATIONS FOR TIME STEP   2 IN STRESS PERIOD   11

 MAXIMUM HEAD CHANGE FOR EACH ITERATION:

    HEAD CHANGE   HEAD CHANGE   HEAD CHANGE   HEAD CHANGE   HEAD CHANGE
  LAYER,ROW,COL LAYER,ROW,COL LAYER,ROW,COL LAYER,ROW,COL LAYER,ROW,COL
 ----------------------------------------------------------------------
    -0.3144E-01    0.7980E-02    0.3921E-02    0.1975E-02    0.9621E-03
  (  1,  6,  5) (  1, 15,  6) (  1, 15,  6) (  1, 15,  6) (  1, 15,  6)
     0.4759E-03    0.2653E-03    0.1098E-03
  (  1, 15,  6) (  1, 15,  6) (  1, 15,  6)


 NO OUTPUT CONTROL FOR STRESS PERIOD   11   TIME STEP    2
 
 SOLVING FOR HEAD 
     8 ITERATIONS FOR TIME STEP   3 IN STRESS PERIOD   11

 MAXIMUM HEAD CHANGE FOR EACH ITERATION:

    HEAD CHANGE   HEAD CHANGE   HEAD CHANGE   HEAD CHANGE   HEAD CHANGE
  LAYER,ROW,COL LAYER,ROW,COL LAYER,ROW,COL LAYER,ROW,COL LAYER,ROW,COL
 ----------------------------------------------------------------------
    -0.3361E-01    0.8694E-02    0.4295E-02    0.2168E-02    0.1057E-02
  (  1, 10,  4) (  1, 15,  6) (  1, 15,  6) (  1, 15,  6) (  1, 15,  6)
     0.5232E-03    0.2917E-03    0.1207E-03
  (  1, 15,  6) (  1, 15,  6) (  1, 15,  6)


 NO OUTPUT CONTROL FOR STRESS PERIOD   11   TIME STEP    3
 
 SOLVING FOR HEAD 
     8 ITERATIONS FOR TIME STEP   4 IN STRESS PERIOD   11

 MAXIMUM HEAD CHANGE FOR EACH ITERATION:

    HEAD CHANGE   HEAD CHANGE   HEAD CHANGE   HEAD CHANGE   HEAD CHANGE
  LAYER,ROW,COL LAYER,ROW,COL LAYER,ROW,COL LAYER,ROW,COL LAYER,ROW,COL
 ----------------------------------------------------------------------
    -0.3591E-01    0.9542E-02    0.4720E-02    0.2315E-02    0.1149E-02
  (  1, 10,  4) (  1, 15,  6) (  1, 15,  6) (  1, 15,  6) (  1, 15,  6)
     0.5726E-03    0.3202E-03    0.1326E-03
  (  1, 15,  6) (  1, 15,  6) (  1, 15,  6)


 NO OUTPUT CONTROL FOR STRESS PERIOD   11   TIME STEP    4
 
 SOLVING FOR HEAD 
     8 ITERATIONS FOR TIME STEP   5 IN STRESS PERIOD   11

 MAXIMUM HEAD CHANGE FOR EACH ITERATION:

    HEAD CHANGE   HEAD CHANGE   HEAD CHANGE   HEAD CHANGE   HEAD CHANGE
  LAYER,ROW,COL LAYER,ROW,COL LAYER,ROW,COL LAYER,ROW,COL LAYER,ROW,COL
 ----------------------------------------------------------------------
    -0.3839E-01    0.1038E-01    0.5167E-02    0.2541E-02    0.1262E-02
  (  1, 10,  4) (  1, 15,  6) (  1, 15,  6) (  1, 15,  6) (  1, 15,  6)
     0.6295E-03    0.2767E-03    0.1307E-03
  (  1, 15,  6) (  1, 15,  6) (  1, 15,  6)


 OUTPUT CONTROL FOR STRESS PERIOD   11   TIME STEP    5
    PRINT BUDGET
    SAVE BUDGET

            WELLS   PERIOD   11   STEP   5
 WELL      1   LAYER   1   ROW     6   COL     4   RATE    -3.00000    
 WELL      2   LAYER   1   ROW     6   COL     5   RATE    -3.00000    
 WELL      3   LAYER   1   ROW     7   COL     4   RATE    -3.00000    
 WELL      4   LAYER   1   ROW     7   COL     5   RATE    -3.00000    
 WELL      5   LAYER   1   ROW     8   COL     4   RATE    -3.00000    
 WELL      6   LAYER   1   ROW     8   COL     5   RATE    -3.00000    
 WELL      7   LAYER   1   ROW     9   COL     4   RATE    -3.00000    
 WELL      8   LAYER   1   ROW     9   COL     5   RATE    -3.00000    
 WELL      9   LAYER   1   ROW    10   COL     4   RATE    -3.00000    
 WELL     10   LAYER   1   ROW    10   COL     5   RATE    -3.00000    

  HEAD DEP BOUNDS   PERIOD   11   STEP   5
 BOUNDARY      1   LAYER   1   ROW    13   COL     1   RATE   -0.263054    
 BOUNDARY      2   LAYER   1   ROW    14   COL     9   RATE    0.209131    



 STREAM LISTING     PERIOD     11   STEP        5

 LAYER ROW COL. STREAM  RCH.  FLOW INTO     FLOW TO   FLOW OUT OF   OVRLND.     DIRECT     STREAM       STREAM     STREAM     STREAM   STREAMBED  STREAMBED
                SEG.NO.  NO.  STRM. RCH.    AQUIFER    STRM. RCH.    RUNOFF     PRECIP       ET          HEAD       DEPTH      WIDTH   CONDCTNC.   GRADIENT

   1    1    1     1     1    2.5000E+01  1.0653E+00   2.3935E+01  0.000E+00  0.000E+00  0.000E+00  1.09422E+03  1.172E+00  1.296E+01  5.830E-01  6.091E-01
   1    2    2     1     2    2.3935E+01  3.0674E+00   2.0867E+01  0.000E+00  0.000E+00  0.000E+00  1.08920E+03  1.140E+00  1.253E+01  8.770E-01  1.166E+00
   1    3    3     1     3    2.0867E+01  2.9022E+00   1.7965E+01  0.000E+00  0.000E+00  0.000E+00  1.08351E+03  1.091E+00  1.182E+01  7.095E-01  1.364E+00
   1    3    4     1     4    1.7965E+01  2.4650E+00   1.5500E+01  0.000E+00  0.000E+00  0.000E+00  1.07845E+03  1.045E+00  1.098E+01  6.094E-01  1.348E+00
   1    4    5     2     1    5.5001E+00  2.6616E+00   2.8386E+00  0.000E+00  0.000E+00  0.000E+00  1.07235E+03  4.123E-01  1.200E+01  7.800E-01  1.137E+00
   1    5    6     2     2    2.8386E+00  1.9525E+00   8.8604E-01  0.000E+00  0.000E+00  0.000E+00  1.06676E+03  2.542E-01  1.200E+01  6.000E-01  1.085E+00
   1    6    6     2     3    8.8604E-01  8.8604E-01   0.0000E+00  0.000E+00  0.000E+00  0.000E+00  1.06183E+03  3.663E-02  1.200E+01  6.000E-01  1.012E+00
   1    7    6     2     4    0.0000E+00  0.0000E+00   0.0000E+00  0.000E+00  0.000E+00  0.000E+00  1.05708E+03  0.000E+00  1.200E+01  6.000E-01  1.000E+00
   1    8    6     2     5    0.0000E+00  0.0000E+00   0.0000E+00  0.000E+00  0.000E+00  0.000E+00  1.05236E+03  0.000E+00  1.200E+01  6.000E-01  1.000E+00
   1    3    5     3     1    1.0000E+01  2.8252E+00   7.1748E+00  0.000E+00  0.000E+00  0.000E+00  1.07555E+03  1.909E+00  9.636E+00  7.227E-01  1.955E+00
   1    3    6     3     2    7.1748E+00  1.8497E+00   5.3251E+00  0.000E+00  0.000E+00  0.000E+00  1.07264E+03  1.727E+00  8.909E+00  6.682E-01  1.384E+00
   1    3    7     3     3    5.3251E+00  8.7917E-01   4.4459E+00  0.000E+00  0.000E+00  0.000E+00  1.06987E+03  1.555E+00  8.218E+00  5.547E-01  7.924E-01
   1    4    8     3     4    4.4459E+00  1.5619E+00   2.8840E+00  0.000E+00  0.000E+00  0.000E+00  1.06682E+03  1.364E+00  7.455E+00  6.709E-01  1.164E+00
   1    5    8     3     5    2.8840E+00  1.5790E+00   1.3051E+00  0.000E+00  0.000E+00  0.000E+00  1.06362E+03  1.164E+00  6.655E+00  4.991E-01  1.582E+00
   1    6    8     3     6    1.3051E+00  5.5980E-01   7.4527E-01  0.000E+00  0.000E+00  0.000E+00  1.06158E+03  1.036E+00  6.145E+00  1.844E-01  1.518E+00
   1    5   10     4     1    1.0000E+01  9.0525E-01   9.0947E+00  0.000E+00  0.000E+00  0.000E+00  1.07835E+03  6.210E-01  1.000E+01  2.500E-01  1.207E+00
   1    5    9     4     2    9.0947E+00  1.7835E+00   7.3113E+00  0.000E+00  0.000E+00  0.000E+00  1.07148E+03  5.670E-01  1.000E+01  5.000E-01  1.189E+00
   1    6    8     4     3    7.3113E+00  1.2257E+00   6.0855E+00  0.000E+00  0.000E+00  0.000E+00  1.06368E+03  5.021E-01  1.000E+01  3.500E-01  1.167E+00
   1    6    8     5     1    6.8308E+00  8.5820E-01   5.9726E+00  0.000E+00  0.000E+00  0.000E+00  1.05857E+03  5.745E-01  1.158E+01  4.630E-01  6.178E-01
   1    7    7     5     2    5.9726E+00  1.7076E+00   4.2650E+00  0.000E+00  0.000E+00  0.000E+00  1.05403E+03  5.313E-01  1.012E+01  5.061E-01  1.125E+00
   1    8    7     5     3    4.2650E+00  1.0226E+00   3.2424E+00  0.000E+00  0.000E+00  0.000E+00  1.04973E+03  4.766E-01  8.404E+00  2.941E-01  1.159E+00
   1    8    6     5     4    3.2424E+00  6.0413E-01   2.6383E+00  0.000E+00  0.000E+00  0.000E+00  1.04669E+03  4.376E-01  7.258E+00  1.815E-01  1.110E+00
   1    9    6     6     1    2.6383E+00  1.9443E+00   6.9403E-01  0.000E+00  0.000E+00  0.000E+00  1.04297E+03  2.404E-01  1.200E+01  6.000E-01  1.080E+00
   1   10    7     6     2    6.9403E-01  6.9403E-01   0.0000E+00  0.000E+00  0.000E+00  0.000E+00  1.03821E+03  3.199E-02  1.200E+01  6.000E-01  1.011E+00
   1   11    7     6     3    0.0000E+00  0.0000E+00   0.0000E+00  0.000E+00  0.000E+00  0.000E+00  1.03364E+03  0.000E+00  1.200E+01  6.000E-01  1.000E+00
   1   12    7     6     4    0.0000E+00  0.0000E+00   0.0000E+00  0.000E+00  0.000E+00  0.000E+00  1.02909E+03  0.000E+00  1.200E+01  6.000E-01  2.652E-01
   1   13    7     6     5    0.0000E+00 -7.7581E-01   7.7581E-01  0.000E+00  0.000E+00  0.000E+00  1.02601E+03  1.003E-01  1.200E+01  2.400E-01 -1.078E+00
   1   14    9     7     1    1.5000E+02  2.0686E+00   1.4793E+02  0.000E+00  0.000E+00  0.000E+00  1.03987E+03  2.286E+00  5.529E+01  5.592E+00  1.233E-01
   1   13    8     7     2    1.4793E+02  3.0354E+00   1.4490E+02  0.000E+00  0.000E+00  0.000E+00  1.03477E+03  2.272E+00  5.522E+01  6.144E+00  1.647E-01
   1   13    7     7     3    1.4490E+02  2.4263E+00   1.4247E+02  0.000E+00  0.000E+00  0.000E+00  1.02968E+03  2.258E+00  5.516E+01  5.578E+00  1.450E-01
   1   13    6     8     1    1.4325E+02  7.0280E-01   1.4254E+02  0.000E+00  0.000E+00  0.000E+00  1.02464E+03  2.766E+00  4.011E+01  4.087E+00  5.732E-02
   1   13    5     8     2    1.4254E+02 -2.0601E+00   1.4460E+02  0.000E+00  0.000E+00  0.000E+00  1.01840E+03  2.771E+00  4.018E+01  4.094E+00 -1.677E-01
   1   13    4     8     3    1.4460E+02 -3.7784E+00   1.4838E+02  0.000E+00  0.000E+00  0.000E+00  1.01217E+03  2.792E+00  4.048E+01  4.125E+00 -3.053E-01
   1   13    3     8     4    1.4838E+02 -4.0037E+00   1.5238E+02  0.000E+00  0.000E+00  0.000E+00  1.00594E+03  2.820E+00  4.088E+01  4.166E+00 -3.203E-01
   1   13    2     8     5    1.5238E+02 -2.0568E+00   1.5444E+02  0.000E+00  0.000E+00  0.000E+00  9.99716E+02  2.841E+00  4.119E+01  4.197E+00 -1.633E-01
   1   13    1     8     6    1.5444E+02 -4.9996E-01   1.5494E+02  0.000E+00  0.000E+00  0.000E+00  9.94725E+02  2.850E+00  4.132E+01  2.526E+00 -6.597E-02



 UBDSV3 SAVING "           GW ET" ON UNIT  61 AT TIME STEP  5, STRESS PERIOD  11
 UBDSV3 SAVING "    UZF RECHARGE" ON UNIT  61 AT TIME STEP  5, STRESS PERIOD  11
 UBDSV3 SAVING " SURFACE LEAKAGE" ON UNIT  61 AT TIME STEP  5, STRESS PERIOD  11
 UBDSV3 SAVING "       HORT+DUNN" ON UNIT  61 AT TIME STEP  5, STRESS PERIOD  11
 UBDSV3 SAVING "  STORAGE CHANGE" ON UNIT  61 AT TIME STEP  5, STRESS PERIOD  11


UNSATURATED ZONE PACKAGE VOLUMETRIC BUDGET FOR  TIME STEP     5 STRESS PERIOD   11
  ------------------------------------------------------------------------------



     CUMULATIVE VOLUMES      L**3       RATES FOR THIS TIME STEP      L**3/T
     ------------------                 ------------------------

           IN:                                      IN:
           ---                                      ---
        INFILTRATION =  1496523612.7400          INFILTRATION =           8.4750

          OUT:                                     OUT:
          ----                                     ----
              UZF ET =  1955758267.9302                UZF ET =          48.6328
        UZF RECHARGE =   341925667.4432          UZF RECHARGE =           9.5344

            IN - OUT =  -801160322.6334              IN - OUT =         -49.6922

          STORAGE:                                 STORAGE:
          --------                                 --------
      STORAGE CHANGE =  -800947564.6986        STORAGE CHANGE =         -49.6922

 PERCENT DISCREPANCY IS DIFFERENCE BETWEEN IN-OUT MINUS CHANGE IN STORAGE
 DIVIDED BY THE AVERAGE OF IN AND OUT TIMES 100

 PERCENT DISCREPANCY =          -0.00     PERCENT DISCREPANCY =          -0.00






1
  VOLUMETRIC BUDGET FOR ENTIRE MODEL AT END OF TIME STEP    5, STRESS PERIOD  11
  ------------------------------------------------------------------------------

     CUMULATIVE VOLUMES      L**3       RATES FOR THIS TIME STEP      L**3/T
     ------------------                 ------------------------

           IN:                                      IN:
           ---                                      ---
             STORAGE =    88251744.0000               STORAGE =          20.4388
       CONSTANT HEAD =           0.0000         CONSTANT HEAD =           0.0000
               WELLS =           0.0000                 WELLS =           0.0000
     HEAD DEP BOUNDS =     5595513.0000       HEAD DEP BOUNDS =           0.2091
      STREAM LEAKAGE =  1155297664.0000        STREAM LEAKAGE =          43.2331
        UZF RECHARGE =   341925632.0000          UZF RECHARGE =           9.5344
               GW ET =           0.0000                 GW ET =           0.0000
     SURFACE LEAKAGE =           0.0000       SURFACE LEAKAGE =           0.0000

            TOTAL IN =  1591070592.0000              TOTAL IN =          73.4155

          OUT:                                     OUT:
          ----                                     ----
             STORAGE =   430905120.0000               STORAGE =          11.2163
       CONSTANT HEAD =           0.0000         CONSTANT HEAD =           0.0000
               WELLS =   330509088.0000                 WELLS =          30.0000
     HEAD DEP BOUNDS =     7058382.0000       HEAD DEP BOUNDS =           0.2631
      STREAM LEAKAGE =   359406304.0000        STREAM LEAKAGE =          13.1748
        UZF RECHARGE =           0.0000          UZF RECHARGE =           0.0000
               GW ET =   463047264.0000                 GW ET =          18.7037
     SURFACE LEAKAGE =           0.0000       SURFACE LEAKAGE =           0.0000

           TOTAL OUT =  1590926208.0000             TOTAL OUT =          73.3579

            IN - OUT =      144384.0000              IN - OUT =       5.7610E-02

 PERCENT DISCREPANCY =           0.01     PERCENT DISCREPANCY =           0.08






         TIME SUMMARY AT END OF TIME STEP    5 IN STRESS PERIOD   11
                    SECONDS     MINUTES      HOURS       DAYS        YEARS
                    -----------------------------------------------------------
   TIME STEP LENGTH 1.21100E+05  2018.3      33.639      1.4016     3.83743E-03
 STRESS PERIOD TIME 5.04972E+05  8416.2      140.27      5.8446     1.60016E-02
         TOTAL TIME 2.67850E+07 4.46416E+05  7440.3      310.01     0.84876    
1
 
 SOLVING FOR HEAD 
     8 ITERATIONS FOR TIME STEP   6 IN STRESS PERIOD   11

 MAXIMUM HEAD CHANGE FOR EACH ITERATION:

    HEAD CHANGE   HEAD CHANGE   HEAD CHANGE   HEAD CHANGE   HEAD CHANGE
  LAYER,ROW,COL LAYER,ROW,COL LAYER,ROW,COL LAYER,ROW,COL LAYER,ROW,COL
 ----------------------------------------------------------------------
    -0.4174E-01    0.9998E-02    0.4818E-02    0.2373E-02    0.1138E-02
  (  1,  9,  4) (  1, 15,  6) (  1, 15,  6) (  1, 15,  6) (  1, 15,  6)
     0.5592E-03    0.2777E-03    0.1384E-03
  (  1, 15,  6) (  1, 15,  6) (  1, 15,  6)


 NO OUTPUT CONTROL FOR STRESS PERIOD   11   TIME STEP    6
 
 SOLVING FOR HEAD 
     8 ITERATIONS FOR TIME STEP   7 IN STRESS PERIOD   11

 MAXIMUM HEAD CHANGE FOR EACH ITERATION:

    HEAD CHANGE   HEAD CHANGE   HEAD CHANGE   HEAD CHANGE   HEAD CHANGE
  LAYER,ROW,COL LAYER,ROW,COL LAYER,ROW,COL LAYER,ROW,COL LAYER,ROW,COL
 ----------------------------------------------------------------------
    -0.4534E-01    0.1058E-01    0.5111E-02    0.2481E-02    0.1134E-02
  (  1,  9,  4) (  1,  7,  1) (  1, 15,  6) (  1, 15,  6) (  1, 15,  6)
     0.5915E-03    0.3006E-03    0.1513E-03
  (  1, 15,  6) (  1, 15,  6) (  1, 15,  6)


 NO OUTPUT CONTROL FOR STRESS PERIOD   11   TIME STEP    7
 
 SOLVING FOR HEAD 
     8 ITERATIONS FOR TIME STEP   8 IN STRESS PERIOD   11

 MAXIMUM HEAD CHANGE FOR EACH ITERATION:

    HEAD CHANGE   HEAD CHANGE   HEAD CHANGE   HEAD CHANGE   HEAD CHANGE
  LAYER,ROW,COL LAYER,ROW,COL LAYER,ROW,COL LAYER,ROW,COL LAYER,ROW,COL
 ----------------------------------------------------------------------
    -0.4937E-01    0.1142E-01    0.5541E-02    0.2712E-02    0.1294E-02
  (  1,  9,  4) (  1, 15,  6) (  1, 15,  6) (  1, 15,  6) (  1, 15,  6)
     0.6598E-03    0.2823E-03    0.1567E-03
  (  1, 15,  6) (  1, 15,  6) (  1, 15,  6)


 NO OUTPUT CONTROL FOR STRESS PERIOD   11   TIME STEP    8
 
 SOLVING FOR HEAD 
     8 ITERATIONS FOR TIME STEP   9 IN STRESS PERIOD   11

 MAXIMUM HEAD CHANGE FOR EACH ITERATION:

    HEAD CHANGE   HEAD CHANGE   HEAD CHANGE   HEAD CHANGE   HEAD CHANGE
  LAYER,ROW,COL LAYER,ROW,COL LAYER,ROW,COL LAYER,ROW,COL LAYER,ROW,COL
 ----------------------------------------------------------------------
    -0.5342E-01    0.1245E-01    0.6017E-02    0.2966E-02    0.1420E-02
  (  1,  9,  4) (  1, 15,  6) (  1, 15,  6) (  1, 15,  6) (  1, 15,  6)
     0.6696E-03    0.3543E-03    0.1811E-03
  (  1, 15,  6) (  1, 15,  6) (  1, 15,  6)


 NO OUTPUT CONTROL FOR STRESS PERIOD   11   TIME STEP    9
 
 SOLVING FOR HEAD 
     8 ITERATIONS FOR TIME STEP  10 IN STRESS PERIOD   11

 MAXIMUM HEAD CHANGE FOR EACH ITERATION:

    HEAD CHANGE   HEAD CHANGE   HEAD CHANGE   HEAD CHANGE   HEAD CHANGE
  LAYER,ROW,COL LAYER,ROW,COL LAYER,ROW,COL LAYER,ROW,COL LAYER,ROW,COL
 ----------------------------------------------------------------------
    -0.5782E-01    0.1314E-01    0.6324E-02    0.3083E-02    0.1465E-02
  (  1,  9,  4) (  1, 15,  6) (  1, 15,  6) (  1, 15,  6) (  1, 15,  6)
     0.7172E-03    0.3857E-03    0.1826E-03
  (  1, 15,  6) (  1, 15,  6) (  1,  7,  1)


 OUTPUT CONTROL FOR STRESS PERIOD   11   TIME STEP   10
    PRINT BUDGET
    SAVE BUDGET

            WELLS   PERIOD   11   STEP  10
 WELL      1   LAYER   1   ROW     6   COL     4   RATE    -3.00000    
 WELL      2   LAYER   1   ROW     6   COL     5   RATE    -3.00000    
 WELL      3   LAYER   1   ROW     7   COL     4   RATE    -3.00000    
 WELL      4   LAYER   1   ROW     7   COL     5   RATE    -3.00000    
 WELL      5   LAYER   1   ROW     8   COL     4   RATE    -3.00000    
 WELL      6   LAYER   1   ROW     8   COL     5   RATE    -3.00000    
 WELL      7   LAYER   1   ROW     9   COL     4   RATE    -3.00000    
 WELL      8   LAYER   1   ROW     9   COL     5   RATE    -3.00000    
 WELL      9   LAYER   1   ROW    10   COL     4   RATE    -3.00000    
 WELL     10   LAYER   1   ROW    10   COL     5   RATE    -3.00000    

  HEAD DEP BOUNDS   PERIOD   11   STEP  10
 BOUNDARY      1   LAYER   1   ROW    13   COL     1   RATE   -0.263021    
 BOUNDARY      2   LAYER   1   ROW    14   COL     9   RATE    0.209181    



 STREAM LISTING     PERIOD     11   STEP       10

 LAYER ROW COL. STREAM  RCH.  FLOW INTO     FLOW TO   FLOW OUT OF   OVRLND.     DIRECT     STREAM       STREAM     STREAM     STREAM   STREAMBED  STREAMBED
                SEG.NO.  NO.  STRM. RCH.    AQUIFER    STRM. RCH.    RUNOFF     PRECIP       ET          HEAD       DEPTH      WIDTH   CONDCTNC.   GRADIENT

   1    1    1     1     1    2.5000E+01  1.0670E+00   2.3933E+01  0.000E+00  0.000E+00  0.000E+00  1.09422E+03  1.172E+00  1.296E+01  5.830E-01  6.100E-01
   1    2    2     1     2    2.3933E+01  3.0688E+00   2.0864E+01  0.000E+00  0.000E+00  0.000E+00  1.08920E+03  1.140E+00  1.253E+01  8.770E-01  1.166E+00
   1    3    3     1     3    2.0864E+01  2.9019E+00   1.7962E+01  0.000E+00  0.000E+00  0.000E+00  1.08351E+03  1.091E+00  1.182E+01  7.094E-01  1.364E+00
   1    3    4     1     4    1.7962E+01  2.4648E+00   1.5498E+01  0.000E+00  0.000E+00  0.000E+00  1.07845E+03  1.045E+00  1.098E+01  6.094E-01  1.348E+00
   1    4    5     2     1    5.4975E+00  2.6615E+00   2.8361E+00  0.000E+00  0.000E+00  0.000E+00  1.07235E+03  4.121E-01  1.200E+01  7.800E-01  1.137E+00
   1    5    6     2     2    2.8361E+00  1.9524E+00   8.8369E-01  0.000E+00  0.000E+00  0.000E+00  1.06676E+03  2.540E-01  1.200E+01  6.000E-01  1.085E+00
   1    6    6     2     3    8.8369E-01  8.8369E-01   0.0000E+00  0.000E+00  0.000E+00  0.000E+00  1.06183E+03  3.657E-02  1.200E+01  6.000E-01  1.012E+00
   1    7    6     2     4    0.0000E+00  0.0000E+00   0.0000E+00  0.000E+00  0.000E+00  0.000E+00  1.05708E+03  0.000E+00  1.200E+01  6.000E-01  1.000E+00
   1    8    6     2     5    0.0000E+00  0.0000E+00   0.0000E+00  0.000E+00  0.000E+00  0.000E+00  1.05236E+03  0.000E+00  1.200E+01  6.000E-01  1.000E+00
   1    3    5     3     1    1.0000E+01  2.8252E+00   7.1748E+00  0.000E+00  0.000E+00  0.000E+00  1.07555E+03  1.909E+00  9.636E+00  7.227E-01  1.955E+00
   1    3    6     3     2    7.1748E+00  1.8662E+00   5.3086E+00  0.000E+00  0.000E+00  0.000E+00  1.07264E+03  1.727E+00  8.909E+00  6.682E-01  1.396E+00
   1    3    7     3     3    5.3086E+00  8.9421E-01   4.4144E+00  0.000E+00  0.000E+00  0.000E+00  1.06987E+03  1.555E+00  8.218E+00  5.547E-01  8.060E-01
   1    4    8     3     4    4.4144E+00  1.5654E+00   2.8491E+00  0.000E+00  0.000E+00  0.000E+00  1.06682E+03  1.364E+00  7.455E+00  6.709E-01  1.167E+00
   1    5    8     3     5    2.8491E+00  1.5790E+00   1.2701E+00  0.000E+00  0.000E+00  0.000E+00  1.06362E+03  1.164E+00  6.655E+00  4.991E-01  1.582E+00
   1    6    8     3     6    1.2701E+00  5.5980E-01   7.1029E-01  0.000E+00  0.000E+00  0.000E+00  1.06158E+03  1.036E+00  6.145E+00  1.844E-01  1.518E+00
   1    5   10     4     1    1.0000E+01  9.0525E-01   9.0947E+00  0.000E+00  0.000E+00  0.000E+00  1.07835E+03  6.210E-01  1.000E+01  2.500E-01  1.207E+00
   1    5    9     4     2    9.0947E+00  1.7835E+00   7.3113E+00  0.000E+00  0.000E+00  0.000E+00  1.07148E+03  5.670E-01  1.000E+01  5.000E-01  1.189E+00
   1    6    8     4     3    7.3113E+00  1.2257E+00   6.0855E+00  0.000E+00  0.000E+00  0.000E+00  1.06368E+03  5.021E-01  1.000E+01  3.500E-01  1.167E+00
   1    6    8     5     1    6.7958E+00  8.4844E-01   5.9474E+00  0.000E+00  0.000E+00  0.000E+00  1.05857E+03  5.736E-01  1.154E+01  4.617E-01  6.125E-01
   1    7    7     5     2    5.9474E+00  1.6869E+00   4.2605E+00  0.000E+00  0.000E+00  0.000E+00  1.05403E+03  5.308E-01  1.010E+01  5.052E-01  1.113E+00
   1    8    7     5     3    4.2605E+00  1.0218E+00   3.2387E+00  0.000E+00  0.000E+00  0.000E+00  1.04973E+03  4.765E-01  8.398E+00  2.939E-01  1.159E+00
   1    8    6     5     4    3.2387E+00  6.0003E-01   2.6386E+00  0.000E+00  0.000E+00  0.000E+00  1.04669E+03  4.375E-01  7.256E+00  1.814E-01  1.103E+00
   1    9    6     6     1    2.6386E+00  1.9443E+00   6.9435E-01  0.000E+00  0.000E+00  0.000E+00  1.04297E+03  2.405E-01  1.200E+01  6.000E-01  1.080E+00
   1   10    7     6     2    6.9435E-01  6.9435E-01   0.0000E+00  0.000E+00  0.000E+00  0.000E+00  1.03821E+03  3.200E-02  1.200E+01  6.000E-01  1.011E+00
   1   11    7     6     3    0.0000E+00  0.0000E+00   0.0000E+00  0.000E+00  0.000E+00  0.000E+00  1.03364E+03  0.000E+00  1.200E+01  6.000E-01  1.000E+00
   1   12    7     6     4    0.0000E+00  0.0000E+00   0.0000E+00  0.000E+00  0.000E+00  0.000E+00  1.02909E+03  0.000E+00  1.200E+01  6.000E-01  2.635E-01
   1   13    7     6     5    0.0000E+00 -7.7607E-01   7.7607E-01  0.000E+00  0.000E+00  0.000E+00  1.02601E+03  1.003E-01  1.200E+01  2.400E-01 -1.078E+00
   1   14    9     7     1    1.5000E+02  2.0757E+00   1.4792E+02  0.000E+00  0.000E+00  0.000E+00  1.03987E+03  2.286E+00  5.529E+01  5.592E+00  1.237E-01
   1   13    8     7     2    1.4792E+02  3.0418E+00   1.4488E+02  0.000E+00  0.000E+00  0.000E+00  1.03477E+03  2.272E+00  5.522E+01  6.144E+00  1.650E-01
   1   13    7     7     3    1.4488E+02  2.4197E+00   1.4246E+02  0.000E+00  0.000E+00  0.000E+00  1.02968E+03  2.257E+00  5.516E+01  5.578E+00  1.446E-01
   1   13    6     8     1    1.4324E+02  7.0430E-01   1.4253E+02  0.000E+00  0.000E+00  0.000E+00  1.02464E+03  2.766E+00  4.011E+01  4.087E+00  5.744E-02
   1   13    5     8     2    1.4253E+02 -2.0650E+00   1.4460E+02  0.000E+00  0.000E+00  0.000E+00  1.01840E+03  2.771E+00  4.018E+01  4.094E+00 -1.681E-01
   1   13    4     8     3    1.4460E+02 -3.7842E+00   1.4838E+02  0.000E+00  0.000E+00  0.000E+00  1.01217E+03  2.792E+00  4.048E+01  4.125E+00 -3.058E-01
   1   13    3     8     4    1.4838E+02 -4.0028E+00   1.5239E+02  0.000E+00  0.000E+00  0.000E+00  1.00594E+03  2.820E+00  4.088E+01  4.166E+00 -3.203E-01
   1   13    2     8     5    1.5239E+02 -2.0500E+00   1.5444E+02  0.000E+00  0.000E+00  0.000E+00  9.99716E+02  2.841E+00  4.119E+01  4.197E+00 -1.628E-01
   1   13    1     8     6    1.5444E+02 -4.9792E-01   1.5493E+02  0.000E+00  0.000E+00  0.000E+00  9.94725E+02  2.850E+00  4.132E+01  2.526E+00 -6.570E-02



 UBDSV3 SAVING "           GW ET" ON UNIT  61 AT TIME STEP 10, STRESS PERIOD  11
 UBDSV3 SAVING "    UZF RECHARGE" ON UNIT  61 AT TIME STEP 10, STRESS PERIOD  11
 UBDSV3 SAVING " SURFACE LEAKAGE" ON UNIT  61 AT TIME STEP 10, STRESS PERIOD  11
 UBDSV3 SAVING "       HORT+DUNN" ON UNIT  61 AT TIME STEP 10, STRESS PERIOD  11
 UBDSV3 SAVING "  STORAGE CHANGE" ON UNIT  61 AT TIME STEP 10, STRESS PERIOD  11


UNSATURATED ZONE PACKAGE VOLUMETRIC BUDGET FOR  TIME STEP    10 STRESS PERIOD   11
  ------------------------------------------------------------------------------



     CUMULATIVE VOLUMES      L**3       RATES FOR THIS TIME STEP      L**3/T
     ------------------                 ------------------------

           IN:                                      IN:
           ---                                      ---
        INFILTRATION =  1503416006.6721          INFILTRATION =           8.4750

          OUT:                                     OUT:
          ----                                     ----
              UZF ET =  1992183208.8262                UZF ET =          42.0444
        UZF RECHARGE =   349335456.3950          UZF RECHARGE =           9.0376

            IN - OUT =  -838102658.5491              IN - OUT =         -42.6070

          STORAGE:                                 STORAGE:
          --------                                 --------
      STORAGE CHANGE =  -837895053.0471        STORAGE CHANGE =         -42.6359

 PERCENT DISCREPANCY IS DIFFERENCE BETWEEN IN-OUT MINUS CHANGE IN STORAGE
 DIVIDED BY THE AVERAGE OF IN AND OUT TIMES 100

 PERCENT DISCREPANCY =          -0.00     PERCENT DISCREPANCY =           0.06






1
  VOLUMETRIC BUDGET FOR ENTIRE MODEL AT END OF TIME STEP   10, STRESS PERIOD  11
  ------------------------------------------------------------------------------

     CUMULATIVE VOLUMES      L**3       RATES FOR THIS TIME STEP      L**3/T
     ------------------                 ------------------------

           IN:                                      IN:
           ---                                      ---
             STORAGE =   103324072.0000               STORAGE =          17.6024
       CONSTANT HEAD =           0.0000         CONSTANT HEAD =           0.0000
               WELLS =           0.0000                 WELLS =           0.0000
     HEAD DEP BOUNDS =     5765617.0000       HEAD DEP BOUNDS =           0.2092
      STREAM LEAKAGE =  1190464128.0000        STREAM LEAKAGE =          43.2415
        UZF RECHARGE =   349335424.0000          UZF RECHARGE =           9.0376
               GW ET =           0.0000                 GW ET =           0.0000
     SURFACE LEAKAGE =           0.0000       SURFACE LEAKAGE =           0.0000

            TOTAL IN =  1648889216.0000              TOTAL IN =          70.0907

          OUT:                                     OUT:
          ----                                     ----
             STORAGE =   438163488.0000               STORAGE =           7.9224
       CONSTANT HEAD =           0.0000         CONSTANT HEAD =           0.0000
               WELLS =   354906944.0000                 WELLS =          30.0000
     HEAD DEP BOUNDS =     7272295.0000       HEAD DEP BOUNDS =           0.2630
      STREAM LEAKAGE =   370120896.0000        STREAM LEAKAGE =          13.1761
        UZF RECHARGE =           0.0000          UZF RECHARGE =           0.0000
               GW ET =   478273472.0000                 GW ET =          18.7271
     SURFACE LEAKAGE =           0.0000       SURFACE LEAKAGE =           0.0000

           TOTAL OUT =  1648737280.0000             TOTAL OUT =          70.0886

            IN - OUT =      151936.0000              IN - OUT =       2.0752E-03

 PERCENT DISCREPANCY =           0.01     PERCENT DISCREPANCY =           0.00






         TIME SUMMARY AT END OF TIME STEP   10 IN STRESS PERIOD   11
                    SECONDS     MINUTES      HOURS       DAYS        YEARS
                    -----------------------------------------------------------
   TIME STEP LENGTH 1.95033E+05  3250.6      54.176      2.2573     6.18023E-03
 STRESS PERIOD TIME 1.31823E+06  21971.      366.18      15.257     4.17723E-02
         TOTAL TIME 2.75982E+07 4.59970E+05  7666.2      319.42     0.87454    
1
 
 SOLVING FOR HEAD 
     9 ITERATIONS FOR TIME STEP  11 IN STRESS PERIOD   11

 MAXIMUM HEAD CHANGE FOR EACH ITERATION:

    HEAD CHANGE   HEAD CHANGE   HEAD CHANGE   HEAD CHANGE   HEAD CHANGE
  LAYER,ROW,COL LAYER,ROW,COL LAYER,ROW,COL LAYER,ROW,COL LAYER,ROW,COL
 ----------------------------------------------------------------------
    -0.6224E-01    0.1955E-01    0.9633E-02    0.4722E-02    0.2342E-02
  (  1,  9,  4) (  1, 15,  5) (  1, 15,  5) (  1, 15,  5) (  1, 15,  5)
     0.1201E-02    0.5728E-03    0.2478E-03    0.1826E-03
  (  1, 15,  5) (  1, 15,  5) (  1, 15,  5) (  1, 15,  5)


 NO OUTPUT CONTROL FOR STRESS PERIOD   11   TIME STEP   11
 
 SOLVING FOR HEAD 
     9 ITERATIONS FOR TIME STEP  12 IN STRESS PERIOD   11

 MAXIMUM HEAD CHANGE FOR EACH ITERATION:

    HEAD CHANGE   HEAD CHANGE   HEAD CHANGE   HEAD CHANGE   HEAD CHANGE
  LAYER,ROW,COL LAYER,ROW,COL LAYER,ROW,COL LAYER,ROW,COL LAYER,ROW,COL
 ----------------------------------------------------------------------
    -0.6694E-01    0.1959E-01    0.9478E-02    0.4603E-02    0.2238E-02
  (  1,  9,  4) (  1, 15,  5) (  1, 15,  5) (  1, 15,  5) (  1, 15,  5)
     0.1033E-02    0.4993E-03    0.2463E-03    0.1225E-03
  (  1, 15,  5) (  1, 15,  5) (  1, 15,  5) (  1, 15,  5)


 NO OUTPUT CONTROL FOR STRESS PERIOD   11   TIME STEP   12
 
 SOLVING FOR HEAD 
     9 ITERATIONS FOR TIME STEP  13 IN STRESS PERIOD   11

 MAXIMUM HEAD CHANGE FOR EACH ITERATION:

    HEAD CHANGE   HEAD CHANGE   HEAD CHANGE   HEAD CHANGE   HEAD CHANGE
  LAYER,ROW,COL LAYER,ROW,COL LAYER,ROW,COL LAYER,ROW,COL LAYER,ROW,COL
 ----------------------------------------------------------------------
    -0.7192E-01    0.1955E-01    0.9461E-02    0.4546E-02    0.2196E-02
  (  1,  8,  4) (  1, 15,  5) (  1, 15,  5) (  1, 15,  5) (  1, 15,  5)
     0.1083E-02    0.5383E-03    0.2684E-03    0.1342E-03
  (  1, 15,  5) (  1, 15,  5) (  1, 15,  5) (  1, 15,  5)


 NO OUTPUT CONTROL FOR STRESS PERIOD   11   TIME STEP   13
 
 SOLVING FOR HEAD 
     9 ITERATIONS FOR TIME STEP  14 IN STRESS PERIOD   11

 MAXIMUM HEAD CHANGE FOR EACH ITERATION:

    HEAD CHANGE   HEAD CHANGE   HEAD CHANGE   HEAD CHANGE   HEAD CHANGE
  LAYER,ROW,COL LAYER,ROW,COL LAYER,ROW,COL LAYER,ROW,COL LAYER,ROW,COL
 ----------------------------------------------------------------------
    -0.7739E-01    0.2262E-01    0.1100E-01    0.5307E-02    0.2570E-02
  (  1,  8,  4) (  1, 10, 10) (  1, 10, 10) (  1, 10, 10) (  1, 10, 10)
     0.1224E-02    0.5998E-03    0.2975E-03    0.1482E-03
  (  1, 10, 10) (  1, 10, 10) (  1, 10, 10) (  1, 10, 10)


 NO OUTPUT CONTROL FOR STRESS PERIOD   11   TIME STEP   14
 
 SOLVING FOR HEAD 
     9 ITERATIONS FOR TIME STEP  15 IN STRESS PERIOD   11

 MAXIMUM HEAD CHANGE FOR EACH ITERATION:

    HEAD CHANGE   HEAD CHANGE   HEAD CHANGE   HEAD CHANGE   HEAD CHANGE
  LAYER,ROW,COL LAYER,ROW,COL LAYER,ROW,COL LAYER,ROW,COL LAYER,ROW,COL
 ----------------------------------------------------------------------
    -0.8296E-01    0.2388E-01    0.1161E-01    0.5639E-02    0.2689E-02
  (  1,  8,  4) (  1, 10, 10) (  1, 10, 10) (  1, 10, 10) (  1, 10, 10)
     0.1318E-02    0.6539E-03    0.3259E-03    0.1627E-03
  (  1, 10, 10) (  1, 10, 10) (  1, 10, 10) (  1, 10, 10)


 OUTPUT CONTROL FOR STRESS PERIOD   11   TIME STEP   15
    PRINT BUDGET
    PRINT HEAD FOR ALL LAYERS
    SAVE HEAD FOR ALL LAYERS
    SAVE BUDGET

            WELLS   PERIOD   11   STEP  15
 WELL      1   LAYER   1   ROW     6   COL     4   RATE    -3.00000    
 WELL      2   LAYER   1   ROW     6   COL     5   RATE    -3.00000    
 WELL      3   LAYER   1   ROW     7   COL     4   RATE    -3.00000    
 WELL      4   LAYER   1   ROW     7   COL     5   RATE    -3.00000    
 WELL      5   LAYER   1   ROW     8   COL     4   RATE    -3.00000    
 WELL      6   LAYER   1   ROW     8   COL     5   RATE    -3.00000    
 WELL      7   LAYER   1   ROW     9   COL     4   RATE    -3.00000    
 WELL      8   LAYER   1   ROW     9   COL     5   RATE    -3.00000    
 WELL      9   LAYER   1   ROW    10   COL     4   RATE    -3.00000    
 WELL     10   LAYER   1   ROW    10   COL     5   RATE    -3.00000    

  HEAD DEP BOUNDS   PERIOD   11   STEP  15
 BOUNDARY      1   LAYER   1   ROW    13   COL     1   RATE   -0.262933    
 BOUNDARY      2   LAYER   1   ROW    14   COL     9   RATE    0.209261    



 STREAM LISTING     PERIOD     11   STEP       15

 LAYER ROW COL. STREAM  RCH.  FLOW INTO     FLOW TO   FLOW OUT OF   OVRLND.     DIRECT     STREAM       STREAM     STREAM     STREAM   STREAMBED  STREAMBED
                SEG.NO.  NO.  STRM. RCH.    AQUIFER    STRM. RCH.    RUNOFF     PRECIP       ET          HEAD       DEPTH      WIDTH   CONDCTNC.   GRADIENT

   1    1    1     1     1    2.5000E+01  1.0696E+00   2.3930E+01  0.000E+00  0.000E+00  0.000E+00  1.09422E+03  1.172E+00  1.296E+01  5.830E-01  6.115E-01
   1    2    2     1     2    2.3930E+01  3.0707E+00   2.0860E+01  0.000E+00  0.000E+00  0.000E+00  1.08920E+03  1.140E+00  1.253E+01  8.769E-01  1.167E+00
   1    3    3     1     3    2.0860E+01  2.9015E+00   1.7958E+01  0.000E+00  0.000E+00  0.000E+00  1.08351E+03  1.090E+00  1.182E+01  7.093E-01  1.363E+00
   1    3    4     1     4    1.7958E+01  2.4644E+00   1.5494E+01  0.000E+00  0.000E+00  0.000E+00  1.07845E+03  1.045E+00  1.098E+01  6.093E-01  1.348E+00
   1    4    5     2     1    5.4937E+00  2.6613E+00   2.8325E+00  0.000E+00  0.000E+00  0.000E+00  1.07235E+03  4.119E-01  1.200E+01  7.800E-01  1.137E+00
   1    5    6     2     2    2.8325E+00  1.9522E+00   8.8024E-01  0.000E+00  0.000E+00  0.000E+00  1.06676E+03  2.537E-01  1.200E+01  6.000E-01  1.085E+00
   1    6    6     2     3    8.8024E-01  8.8024E-01   0.0000E+00  0.000E+00  0.000E+00  0.000E+00  1.06183E+03  3.648E-02  1.200E+01  6.000E-01  1.012E+00
   1    7    6     2     4    0.0000E+00  0.0000E+00   0.0000E+00  0.000E+00  0.000E+00  0.000E+00  1.05708E+03  0.000E+00  1.200E+01  6.000E-01  1.000E+00
   1    8    6     2     5    0.0000E+00  0.0000E+00   0.0000E+00  0.000E+00  0.000E+00  0.000E+00  1.05236E+03  0.000E+00  1.200E+01  6.000E-01  1.000E+00
   1    3    5     3     1    1.0000E+01  2.8252E+00   7.1748E+00  0.000E+00  0.000E+00  0.000E+00  1.07555E+03  1.909E+00  9.636E+00  7.227E-01  1.955E+00
   1    3    6     3     2    7.1748E+00  1.8983E+00   5.2765E+00  0.000E+00  0.000E+00  0.000E+00  1.07264E+03  1.727E+00  8.909E+00  6.682E-01  1.421E+00
   1    3    7     3     3    5.2765E+00  9.1127E-01   4.3652E+00  0.000E+00  0.000E+00  0.000E+00  1.06987E+03  1.555E+00  8.218E+00  5.547E-01  8.214E-01
   1    4    8     3     4    4.3652E+00  1.5693E+00   2.7959E+00  0.000E+00  0.000E+00  0.000E+00  1.06682E+03  1.364E+00  7.455E+00  6.709E-01  1.170E+00
   1    5    8     3     5    2.7959E+00  1.5790E+00   1.2169E+00  0.000E+00  0.000E+00  0.000E+00  1.06362E+03  1.164E+00  6.655E+00  4.991E-01  1.582E+00
   1    6    8     3     6    1.2169E+00  5.5980E-01   6.5710E-01  0.000E+00  0.000E+00  0.000E+00  1.06158E+03  1.036E+00  6.145E+00  1.844E-01  1.518E+00
   1    5   10     4     1    1.0000E+01  9.0525E-01   9.0947E+00  0.000E+00  0.000E+00  0.000E+00  1.07835E+03  6.210E-01  1.000E+01  2.500E-01  1.207E+00
   1    5    9     4     2    9.0947E+00  1.7835E+00   7.3113E+00  0.000E+00  0.000E+00  0.000E+00  1.07148E+03  5.670E-01  1.000E+01  5.000E-01  1.189E+00
   1    6    8     4     3    7.3113E+00  1.2257E+00   6.0855E+00  0.000E+00  0.000E+00  0.000E+00  1.06368E+03  5.021E-01  1.000E+01  3.500E-01  1.167E+00
   1    6    8     5     1    6.7426E+00  8.3310E-01   5.9095E+00  0.000E+00  0.000E+00  0.000E+00  1.05857E+03  5.722E-01  1.149E+01  4.598E-01  6.040E-01
   1    7    7     5     2    5.9095E+00  1.6622E+00   4.2473E+00  0.000E+00  0.000E+00  0.000E+00  1.05403E+03  5.298E-01  1.007E+01  5.037E-01  1.100E+00
   1    8    7     5     3    4.2473E+00  1.0197E+00   3.2276E+00  0.000E+00  0.000E+00  0.000E+00  1.04973E+03  4.759E-01  8.382E+00  2.934E-01  1.159E+00
   1    8    6     5     4    3.2276E+00  6.0508E-01   2.6225E+00  0.000E+00  0.000E+00  0.000E+00  1.04669E+03  4.368E-01  7.236E+00  1.809E-01  1.115E+00
   1    9    6     6     1    2.6225E+00  1.9435E+00   6.7906E-01  0.000E+00  0.000E+00  0.000E+00  1.04297E+03  2.391E-01  1.200E+01  6.000E-01  1.080E+00
   1   10    7     6     2    6.7906E-01  6.7906E-01   0.0000E+00  0.000E+00  0.000E+00  0.000E+00  1.03821E+03  3.157E-02  1.200E+01  6.000E-01  1.011E+00
   1   11    7     6     3    0.0000E+00  0.0000E+00   0.0000E+00  0.000E+00  0.000E+00  0.000E+00  1.03364E+03  0.000E+00  1.200E+01  6.000E-01  9.931E-01
   1   12    7     6     4    0.0000E+00  0.0000E+00   0.0000E+00  0.000E+00  0.000E+00  0.000E+00  1.02909E+03  0.000E+00  1.200E+01  6.000E-01  2.606E-01
   1   13    7     6     5    0.0000E+00 -7.7632E-01   7.7632E-01  0.000E+00  0.000E+00  0.000E+00  1.02601E+03  1.003E-01  1.200E+01  2.400E-01 -1.078E+00
   1   14    9     7     1    1.5000E+02  2.0874E+00   1.4791E+02  0.000E+00  0.000E+00  0.000E+00  1.03987E+03  2.286E+00  5.529E+01  5.592E+00  1.244E-01
   1   13    8     7     2    1.4791E+02  3.0526E+00   1.4486E+02  0.000E+00  0.000E+00  0.000E+00  1.03477E+03  2.272E+00  5.522E+01  6.144E+00  1.656E-01
   1   13    7     7     3    1.4486E+02  2.4132E+00   1.4245E+02  0.000E+00  0.000E+00  0.000E+00  1.02968E+03  2.257E+00  5.516E+01  5.578E+00  1.442E-01
   1   13    6     8     1    1.4322E+02  7.0550E-01   1.4252E+02  0.000E+00  0.000E+00  0.000E+00  1.02464E+03  2.766E+00  4.011E+01  4.087E+00  5.754E-02
   1   13    5     8     2    1.4252E+02 -2.0703E+00   1.4459E+02  0.000E+00  0.000E+00  0.000E+00  1.01840E+03  2.771E+00  4.018E+01  4.094E+00 -1.686E-01
   1   13    4     8     3    1.4459E+02 -3.7760E+00   1.4836E+02  0.000E+00  0.000E+00  0.000E+00  1.01217E+03  2.792E+00  4.048E+01  4.125E+00 -3.051E-01
   1   13    3     8     4    1.4836E+02 -4.0023E+00   1.5237E+02  0.000E+00  0.000E+00  0.000E+00  1.00594E+03  2.819E+00  4.088E+01  4.166E+00 -3.202E-01
   1   13    2     8     5    1.5237E+02 -2.0413E+00   1.5441E+02  0.000E+00  0.000E+00  0.000E+00  9.99716E+02  2.841E+00  4.119E+01  4.197E+00 -1.621E-01
   1   13    1     8     6    1.5441E+02 -4.9259E-01   1.5490E+02  0.000E+00  0.000E+00  0.000E+00  9.94724E+02  2.849E+00  4.131E+01  2.526E+00 -6.500E-02



 UBDSV3 SAVING "           GW ET" ON UNIT  61 AT TIME STEP 15, STRESS PERIOD  11
 UBDSV3 SAVING "    UZF RECHARGE" ON UNIT  61 AT TIME STEP 15, STRESS PERIOD  11
 UBDSV3 SAVING " SURFACE LEAKAGE" ON UNIT  61 AT TIME STEP 15, STRESS PERIOD  11
 UBDSV3 SAVING "       HORT+DUNN" ON UNIT  61 AT TIME STEP 15, STRESS PERIOD  11
 UBDSV3 SAVING "  STORAGE CHANGE" ON UNIT  61 AT TIME STEP 15, STRESS PERIOD  11


UNSATURATED ZONE PACKAGE VOLUMETRIC BUDGET FOR  TIME STEP    15 STRESS PERIOD   11
  ------------------------------------------------------------------------------



     CUMULATIVE VOLUMES      L**3       RATES FOR THIS TIME STEP      L**3/T
     ------------------                 ------------------------

           IN:                                      IN:
           ---                                      ---
        INFILTRATION =  1514516276.4553          INFILTRATION =           8.4750

          OUT:                                     OUT:
          ----                                     ----
              UZF ET =  2043459946.1807                UZF ET =          37.3037
        UZF RECHARGE =   361809107.3279          UZF RECHARGE =           9.3109

            IN - OUT =  -890752777.0533              IN - OUT =         -38.1396

          STORAGE:                                 STORAGE:
          --------                                 --------
      STORAGE CHANGE =  -890543874.7236        STORAGE CHANGE =         -38.1395

 PERCENT DISCREPANCY IS DIFFERENCE BETWEEN IN-OUT MINUS CHANGE IN STORAGE
 DIVIDED BY THE AVERAGE OF IN AND OUT TIMES 100

 PERCENT DISCREPANCY =          -0.00     PERCENT DISCREPANCY =          -0.00






1
              HEAD IN LAYER   1 AT END OF TIME STEP  15 IN STRESS PERIOD   11
  ---------------------------------------------------------------------------

           1       2       3       4       5       6       7       8       9      10
 ...................................................................................
   1  1092.39 1088.63 6999.00 6999.00 6999.00 6999.00 6999.00 6999.00 6999.00 6999.00
   2  1089.03 1085.70 1079.28 6999.00 6999.00 1073.77 1072.66 1070.93 6999.00 6999.00
   3  6999.00 1077.38 1074.51 1070.39 1070.97 1069.80 1068.23 1067.93 6999.00 6999.00
   4  1069.41 1068.68 1067.04 1063.64 1062.48 1061.18 1061.76 1064.48 1063.90 6999.00
   5  1065.17 1061.72 1059.30 1057.45 1057.16 1057.72 1057.54 1059.56 1062.99 1065.38
   6  1060.41 1055.85 1053.02 1051.01 1051.30 1053.23 1054.47 1056.76 1059.52 1063.68
   7  1056.55 1050.20 1047.32 1045.52 1046.12 1048.37 1050.73 1053.04 1054.32 6999.00
   8  6999.00 1042.80 1041.32 1040.04 1040.88 1043.34 1045.12 1047.46 1049.27 6999.00
   9  6999.00 1035.82 1035.28 1034.60 1035.75 1038.39 1039.28 1041.02 1043.85 6999.00
  10  6999.00 1028.70 1029.12 1029.48 1030.96 1033.27 1034.57 1036.44 1040.12 1044.65
  11  6999.00 1019.80 1021.58 1025.09 1027.10 1029.19 1030.66 1032.93 1036.37 6999.00
  12  1001.20 1008.87 1014.15 1019.06 1022.70 1025.92 1028.31 1031.03 1034.89 6999.00
  13   994.92 1000.20 1006.91 1013.08 1018.90 1024.47 1029.24 1034.28 1036.39 6999.00
  14  6999.00 1005.81 1011.40 1016.13 1021.16 1025.87 1030.14 1035.23 1039.49 6999.00
  15  6999.00 6999.00 1018.84 1021.84 1026.00 1029.35 6999.00 6999.00 6999.00 6999.00

 HEAD WILL BE SAVED ON UNIT   58 AT END OF TIME STEP   15, STRESS PERIOD   11
1
  VOLUMETRIC BUDGET FOR ENTIRE MODEL AT END OF TIME STEP   15, STRESS PERIOD  11
  ------------------------------------------------------------------------------

     CUMULATIVE VOLUMES      L**3       RATES FOR THIS TIME STEP      L**3/T
     ------------------                 ------------------------

           IN:                                      IN:
           ---                                      ---
             STORAGE =   125240224.0000               STORAGE =          16.3395
       CONSTANT HEAD =           0.0000         CONSTANT HEAD =           0.0000
               WELLS =           0.0000                 WELLS =           0.0000
     HEAD DEP BOUNDS =     6039648.5000       HEAD DEP BOUNDS =           0.2093
      STREAM LEAKAGE =  1247108096.0000        STREAM LEAKAGE =          43.2587
        UZF RECHARGE =   361809056.0000          UZF RECHARGE =           9.3109
               GW ET =           0.0000                 GW ET =           0.0000
     SURFACE LEAKAGE =           0.0000       SURFACE LEAKAGE =           0.0000

            TOTAL IN =  1740196992.0000              TOTAL IN =          69.1183

          OUT:                                     OUT:
          ----                                     ----
             STORAGE =   447958880.0000               STORAGE =           6.8269
       CONSTANT HEAD =           0.0000         CONSTANT HEAD =           0.0000
               WELLS =   394199936.0000                 WELLS =          30.0000
     HEAD DEP BOUNDS =     7616740.5000       HEAD DEP BOUNDS =           0.2629
      STREAM LEAKAGE =   387371136.0000        STREAM LEAKAGE =          13.1586
        UZF RECHARGE =           0.0000          UZF RECHARGE =           0.0000
               GW ET =   502892992.0000                 GW ET =          18.9130
     SURFACE LEAKAGE =           0.0000       SURFACE LEAKAGE =           0.0000

           TOTAL OUT =  1740039680.0000             TOTAL OUT =          69.1615

            IN - OUT =      157312.0000              IN - OUT =      -4.3167E-02

 PERCENT DISCREPANCY =           0.01     PERCENT DISCREPANCY =          -0.06






         TIME SUMMARY AT END OF TIME STEP   15 IN STRESS PERIOD   11
                    SECONDS     MINUTES      HOURS       DAYS        YEARS
                    -----------------------------------------------------------
   TIME STEP LENGTH 3.14103E+05  5235.0      87.251      3.6354     9.95332E-03
 STRESS PERIOD TIME 2.62800E+06  43800.      730.00      30.417     8.32763E-02
         TOTAL TIME 2.89080E+07 4.81800E+05  8030.0      334.58     0.91604    
1
1
                            STRESS PERIOD NO.   12, LENGTH =   2628000.    
                            -----------------------------------------------

                              NUMBER OF TIME STEPS =    15

                               MULTIPLIER FOR DELT =     1.100

                            INITIAL TIME STEP SIZE =   82713.07    

      0 WELLS

 REUSING NON-PARAMETER GHB CELLS FROM LAST STRESS PERIOD

      2 GHB CELLS

 REUSING STREAM SEGMENT DATA FROM LAST STRESS PERIOD



            AREAL INFILTRATION RATE
 READING ON UNIT   19 WITH FORMAT: (10F4.0)            

            1           2           3           4           5           6           7           8           9          10
 ........................................................................................................................
   1   1.0000E-09  2.0000E-09   0.000       0.000       0.000       0.000       0.000       0.000       0.000       0.000    
   2   2.0000E-09  1.0000E-09  2.0000E-09   0.000       0.000      8.0000E-09  8.0000E-09  5.0000E-09   0.000       0.000    
   3    0.000      5.0000E-09  1.0000E-09  1.0000E-09  8.0000E-09  8.0000E-09  5.0000E-09  5.0000E-09   0.000       0.000    
   4   8.0000E-09  5.0000E-09  1.0000E-09  1.0000E-09  1.0000E-09  1.0000E-09  1.0000E-09  1.0000E-09  2.0000E-09   0.000    
   5   8.0000E-09  5.0000E-09  1.0000E-09  1.0000E-09  1.0000E-09  1.0000E-09  1.0000E-09  1.0000E-09  1.0000E-09  1.0000E-09
   6   8.0000E-09  5.0000E-09  5.0000E-09  2.0000E-09  2.0000E-09  1.0000E-09  1.0000E-09  1.0000E-09  1.0000E-09  5.0000E-09
   7   8.0000E-09  5.0000E-09  5.0000E-09  2.0000E-09  2.0000E-09  1.0000E-09  1.0000E-09  2.0000E-09  2.0000E-09   0.000    
   8    0.000      5.0000E-09  5.0000E-09  2.0000E-09  2.0000E-09  1.0000E-09  1.0000E-09  2.0000E-09  5.0000E-09   0.000    
   9    0.000      5.0000E-09  5.0000E-09  2.0000E-09  2.0000E-09  1.0000E-09  1.0000E-09  2.0000E-09  5.0000E-09   0.000    
  10    0.000      5.0000E-09  5.0000E-09  2.0000E-09  2.0000E-09  1.0000E-09  1.0000E-09  2.0000E-09  5.0000E-09  8.0000E-09
  11    0.000      1.0000E-09  1.0000E-09  1.0000E-09  1.0000E-09  1.0000E-09  1.0000E-09  2.0000E-09  5.0000E-09   0.000    
  12   1.0000E-09  1.0000E-09  1.0000E-09  1.0000E-09  1.0000E-09  1.0000E-09  1.0000E-09  1.0000E-09  2.0000E-09   0.000    
  13   1.0000E-09  1.0000E-09  2.0000E-09  2.0000E-09  2.0000E-09  2.0000E-09  2.0000E-09  1.0000E-09  1.0000E-09   0.000    
  14    0.000      2.0000E-09  5.0000E-09  5.0000E-09  5.0000E-09  5.0000E-09  5.0000E-09  2.0000E-09  1.0000E-09   0.000    
  15    0.000       0.000      8.0000E-09  8.0000E-09  8.0000E-09  8.0000E-09   0.000       0.000       0.000       0.000    

USING ET RATE FROM PREVIOUS STRESS PERIOD. CURRENT PERIOD IS:      12

 USING ET EXTINCTION DEPTH FROM PREVIOUS STRESS PERIOD. CURRENT PERIOD IS:      12

 USING EXTINCTION WATER CONTENT FROM PREVIOUS STRESS PERIOD. CURRENT PERIOD IS:      12
 
 SOLVING FOR HEAD 

     7 ITERATIONS FOR TIME STEP   1 IN STRESS PERIOD   12

 MAXIMUM HEAD CHANGE FOR EACH ITERATION:

    HEAD CHANGE   HEAD CHANGE   HEAD CHANGE   HEAD CHANGE   HEAD CHANGE
  LAYER,ROW,COL LAYER,ROW,COL LAYER,ROW,COL LAYER,ROW,COL LAYER,ROW,COL
 ----------------------------------------------------------------------
     0.2537E-01    0.6300E-02    0.3067E-02    0.1491E-02    0.7110E-03
  (  1, 10,  5) (  1, 10, 10) (  1, 10, 10) (  1, 10, 10) (  1, 10, 10)
     0.3487E-03    0.1730E-03
  (  1, 10, 10) (  1, 10, 10)


 NO OUTPUT CONTROL FOR STRESS PERIOD   12   TIME STEP    1
 
 SOLVING FOR HEAD 
     7 ITERATIONS FOR TIME STEP   2 IN STRESS PERIOD   12

 MAXIMUM HEAD CHANGE FOR EACH ITERATION:

    HEAD CHANGE   HEAD CHANGE   HEAD CHANGE   HEAD CHANGE   HEAD CHANGE
  LAYER,ROW,COL LAYER,ROW,COL LAYER,ROW,COL LAYER,ROW,COL LAYER,ROW,COL
 ----------------------------------------------------------------------
     0.2687E-01    0.6849E-02    0.3300E-02    0.1625E-02    0.7791E-03
  (  1, 10,  5) (  1, 10, 10) (  1, 10, 10) (  1, 10, 10) (  1, 10, 10)
     0.3829E-03    0.1901E-03
  (  1, 10, 10) (  1, 10, 10)


 NO OUTPUT CONTROL FOR STRESS PERIOD   12   TIME STEP    2
 
 SOLVING FOR HEAD 
     8 ITERATIONS FOR TIME STEP   3 IN STRESS PERIOD   12

 MAXIMUM HEAD CHANGE FOR EACH ITERATION:

    HEAD CHANGE   HEAD CHANGE   HEAD CHANGE   HEAD CHANGE   HEAD CHANGE
  LAYER,ROW,COL LAYER,ROW,COL LAYER,ROW,COL LAYER,ROW,COL LAYER,ROW,COL
 ----------------------------------------------------------------------
     0.2827E-01    0.7229E-02    0.3506E-02    0.1700E-02    0.7770E-03
  (  1, 10,  5) (  1, 10, 10) (  1, 10, 10) (  1, 10, 10) (  1, 10, 10)
     0.4051E-03    0.2059E-03    0.1036E-03
  (  1, 10, 10) (  1, 10, 10) (  1, 10, 10)


 NO OUTPUT CONTROL FOR STRESS PERIOD   12   TIME STEP    3
 
 SOLVING FOR HEAD 
     8 ITERATIONS FOR TIME STEP   4 IN STRESS PERIOD   12

 MAXIMUM HEAD CHANGE FOR EACH ITERATION:

    HEAD CHANGE   HEAD CHANGE   HEAD CHANGE   HEAD CHANGE   HEAD CHANGE
  LAYER,ROW,COL LAYER,ROW,COL LAYER,ROW,COL LAYER,ROW,COL LAYER,ROW,COL
 ----------------------------------------------------------------------
     0.2959E-01    0.7860E-02    0.3838E-02    0.1866E-02    0.9225E-03
  (  1, 10,  5) (  1, 10, 10) (  1, 10, 10) (  1, 10, 10) (  1, 10, 10)
     0.3905E-03    0.2154E-03    0.1117E-03
  (  1, 10, 10) (  1, 10, 10) (  1, 10, 10)


 NO OUTPUT CONTROL FOR STRESS PERIOD   12   TIME STEP    4
 
 SOLVING FOR HEAD 
     8 ITERATIONS FOR TIME STEP   5 IN STRESS PERIOD   12

 MAXIMUM HEAD CHANGE FOR EACH ITERATION:

    HEAD CHANGE   HEAD CHANGE   HEAD CHANGE   HEAD CHANGE   HEAD CHANGE
  LAYER,ROW,COL LAYER,ROW,COL LAYER,ROW,COL LAYER,ROW,COL LAYER,ROW,COL
 ----------------------------------------------------------------------
     0.3112E-01    0.8632E-02    0.4218E-02    0.1976E-02    0.9994E-03
  (  1, 10,  5) (  1, 10, 10) (  1, 10, 10) (  1, 10, 10) (  1, 10, 10)
     0.5019E-03    0.2514E-03    0.1258E-03
  (  1, 10, 10) (  1, 10, 10) (  1, 10, 10)


 OUTPUT CONTROL FOR STRESS PERIOD   12   TIME STEP    5
    PRINT BUDGET
    SAVE BUDGET

  HEAD DEP BOUNDS   PERIOD   12   STEP   5
 BOUNDARY      1   LAYER   1   ROW    13   COL     1   RATE   -0.262848    
 BOUNDARY      2   LAYER   1   ROW    14   COL     9   RATE    0.209302    



 STREAM LISTING     PERIOD     12   STEP        5

 LAYER ROW COL. STREAM  RCH.  FLOW INTO     FLOW TO   FLOW OUT OF   OVRLND.     DIRECT     STREAM       STREAM     STREAM     STREAM   STREAMBED  STREAMBED
                SEG.NO.  NO.  STRM. RCH.    AQUIFER    STRM. RCH.    RUNOFF     PRECIP       ET          HEAD       DEPTH      WIDTH   CONDCTNC.   GRADIENT

   1    1    1     1     1    2.5000E+01  1.0709E+00   2.3929E+01  0.000E+00  0.000E+00  0.000E+00  1.09422E+03  1.172E+00  1.296E+01  5.830E-01  6.123E-01
   1    2    2     1     2    2.3929E+01  3.0721E+00   2.0857E+01  0.000E+00  0.000E+00  0.000E+00  1.08920E+03  1.140E+00  1.253E+01  8.769E-01  1.168E+00
   1    3    3     1     3    2.0857E+01  2.9013E+00   1.7956E+01  0.000E+00  0.000E+00  0.000E+00  1.08351E+03  1.090E+00  1.182E+01  7.093E-01  1.363E+00
   1    3    4     1     4    1.7956E+01  2.4642E+00   1.5492E+01  0.000E+00  0.000E+00  0.000E+00  1.07845E+03  1.044E+00  1.098E+01  6.093E-01  1.348E+00
   1    4    5     2     1    5.4915E+00  2.6612E+00   2.8303E+00  0.000E+00  0.000E+00  0.000E+00  1.07235E+03  4.118E-01  1.200E+01  7.800E-01  1.137E+00
   1    5    6     2     2    2.8303E+00  1.9521E+00   8.7821E-01  0.000E+00  0.000E+00  0.000E+00  1.06676E+03  2.535E-01  1.200E+01  6.000E-01  1.085E+00
   1    6    6     2     3    8.7821E-01  8.7821E-01   0.0000E+00  0.000E+00  0.000E+00  0.000E+00  1.06183E+03  3.643E-02  1.200E+01  6.000E-01  1.012E+00
   1    7    6     2     4    0.0000E+00  0.0000E+00   0.0000E+00  0.000E+00  0.000E+00  0.000E+00  1.05708E+03  0.000E+00  1.200E+01  6.000E-01  1.000E+00
   1    8    6     2     5    0.0000E+00  0.0000E+00   0.0000E+00  0.000E+00  0.000E+00  0.000E+00  1.05236E+03  0.000E+00  1.200E+01  6.000E-01  1.000E+00
   1    3    5     3     1    1.0000E+01  2.8252E+00   7.1748E+00  0.000E+00  0.000E+00  0.000E+00  1.07555E+03  1.909E+00  9.636E+00  7.227E-01  1.955E+00
   1    3    6     3     2    7.1748E+00  1.9102E+00   5.2646E+00  0.000E+00  0.000E+00  0.000E+00  1.07264E+03  1.727E+00  8.909E+00  6.682E-01  1.429E+00
   1    3    7     3     3    5.2646E+00  9.1680E-01   4.3478E+00  0.000E+00  0.000E+00  0.000E+00  1.06987E+03  1.555E+00  8.218E+00  5.547E-01  8.264E-01
   1    4    8     3     4    4.3478E+00  1.5716E+00   2.7762E+00  0.000E+00  0.000E+00  0.000E+00  1.06682E+03  1.364E+00  7.455E+00  6.709E-01  1.171E+00
   1    5    8     3     5    2.7762E+00  1.5790E+00   1.1972E+00  0.000E+00  0.000E+00  0.000E+00  1.06362E+03  1.164E+00  6.655E+00  4.991E-01  1.582E+00
   1    6    8     3     6    1.1972E+00  5.5980E-01   6.3740E-01  0.000E+00  0.000E+00  0.000E+00  1.06158E+03  1.036E+00  6.145E+00  1.844E-01  1.518E+00
   1    5   10     4     1    1.0000E+01  9.0525E-01   9.0947E+00  0.000E+00  0.000E+00  0.000E+00  1.07835E+03  6.210E-01  1.000E+01  2.500E-01  1.207E+00
   1    5    9     4     2    9.0947E+00  1.7835E+00   7.3113E+00  0.000E+00  0.000E+00  0.000E+00  1.07148E+03  5.670E-01  1.000E+01  5.000E-01  1.189E+00
   1    6    8     4     3    7.3113E+00  1.2257E+00   6.0855E+00  0.000E+00  0.000E+00  0.000E+00  1.06368E+03  5.021E-01  1.000E+01  3.500E-01  1.167E+00
   1    6    8     5     1    6.7229E+00  8.2805E-01   5.8949E+00  0.000E+00  0.000E+00  0.000E+00  1.05857E+03  5.716E-01  1.148E+01  4.590E-01  6.013E-01
   1    7    7     5     2    5.8949E+00  1.6550E+00   4.2399E+00  0.000E+00  0.000E+00  0.000E+00  1.05403E+03  5.294E-01  1.006E+01  5.031E-01  1.097E+00
   1    8    7     5     3    4.2399E+00  1.0185E+00   3.2214E+00  0.000E+00  0.000E+00  0.000E+00  1.04973E+03  4.756E-01  8.373E+00  2.930E-01  1.159E+00
   1    8    6     5     4    3.2214E+00  6.0642E-01   2.6150E+00  0.000E+00  0.000E+00  0.000E+00  1.04669E+03  4.364E-01  7.225E+00  1.806E-01  1.119E+00
   1    9    6     6     1    2.6150E+00  1.9431E+00   6.7189E-01  0.000E+00  0.000E+00  0.000E+00  1.04297E+03  2.385E-01  1.200E+01  6.000E-01  1.079E+00
   1   10    7     6     2    6.7189E-01  6.7189E-01   0.0000E+00  0.000E+00  0.000E+00  0.000E+00  1.03821E+03  3.137E-02  1.200E+01  6.000E-01  1.010E+00
   1   11    7     6     3    0.0000E+00  0.0000E+00   0.0000E+00  0.000E+00  0.000E+00  0.000E+00  1.03364E+03  0.000E+00  1.200E+01  6.000E-01  9.905E-01
   1   12    7     6     4    0.0000E+00  0.0000E+00   0.0000E+00  0.000E+00  0.000E+00  0.000E+00  1.02909E+03  0.000E+00  1.200E+01  6.000E-01  2.599E-01
   1   13    7     6     5    0.0000E+00 -7.7619E-01   7.7619E-01  0.000E+00  0.000E+00  0.000E+00  1.02601E+03  1.003E-01  1.200E+01  2.400E-01 -1.078E+00
   1   14    9     7     1    1.5000E+02  2.0933E+00   1.4791E+02  0.000E+00  0.000E+00  0.000E+00  1.03987E+03  2.286E+00  5.529E+01  5.592E+00  1.248E-01
   1   13    8     7     2    1.4791E+02  3.0619E+00   1.4484E+02  0.000E+00  0.000E+00  0.000E+00  1.03477E+03  2.272E+00  5.522E+01  6.144E+00  1.661E-01
   1   13    7     7     3    1.4484E+02  2.4158E+00   1.4243E+02  0.000E+00  0.000E+00  0.000E+00  1.02968E+03  2.257E+00  5.516E+01  5.578E+00  1.444E-01
   1   13    6     8     1    1.4321E+02  7.0543E-01   1.4250E+02  0.000E+00  0.000E+00  0.000E+00  1.02464E+03  2.766E+00  4.010E+01  4.087E+00  5.754E-02
   1   13    5     8     2    1.4250E+02 -2.0663E+00   1.4457E+02  0.000E+00  0.000E+00  0.000E+00  1.01840E+03  2.771E+00  4.017E+01  4.094E+00 -1.682E-01
   1   13    4     8     3    1.4457E+02 -3.7700E+00   1.4834E+02  0.000E+00  0.000E+00  0.000E+00  1.01217E+03  2.792E+00  4.048E+01  4.125E+00 -3.047E-01
   1   13    3     8     4    1.4834E+02 -3.9968E+00   1.5233E+02  0.000E+00  0.000E+00  0.000E+00  1.00594E+03  2.819E+00  4.088E+01  4.166E+00 -3.198E-01
   1   13    2     8     5    1.5233E+02 -2.0346E+00   1.5437E+02  0.000E+00  0.000E+00  0.000E+00  9.99715E+02  2.840E+00  4.118E+01  4.197E+00 -1.616E-01
   1   13    1     8     6    1.5437E+02 -4.8761E-01   1.5486E+02  0.000E+00  0.000E+00  0.000E+00  9.94724E+02  2.849E+00  4.131E+01  2.526E+00 -6.435E-02



 UBDSV3 SAVING "           GW ET" ON UNIT  61 AT TIME STEP  5, STRESS PERIOD  12
 UBDSV3 SAVING "    UZF RECHARGE" ON UNIT  61 AT TIME STEP  5, STRESS PERIOD  12
 UBDSV3 SAVING " SURFACE LEAKAGE" ON UNIT  61 AT TIME STEP  5, STRESS PERIOD  12
 UBDSV3 SAVING "       HORT+DUNN" ON UNIT  61 AT TIME STEP  5, STRESS PERIOD  12
 UBDSV3 SAVING "  STORAGE CHANGE" ON UNIT  61 AT TIME STEP  5, STRESS PERIOD  12


UNSATURATED ZONE PACKAGE VOLUMETRIC BUDGET FOR  TIME STEP     5 STRESS PERIOD   12
  ------------------------------------------------------------------------------



     CUMULATIVE VOLUMES      L**3       RATES FOR THIS TIME STEP      L**3/T
     ------------------                 ------------------------

           IN:                                      IN:
           ---                                      ---
        INFILTRATION =  1518795910.5747          INFILTRATION =           8.4750

          OUT:                                     OUT:
          ----                                     ----
              UZF ET =  2061764319.3862                UZF ET =          35.8903
        UZF RECHARGE =   366372211.9249          UZF RECHARGE =           8.8339

            IN - OUT =  -909340620.7364              IN - OUT =         -36.2492

          STORAGE:                                 STORAGE:
          --------                                 --------
      STORAGE CHANGE =  -909131717.8150        STORAGE CHANGE =         -36.2492

 PERCENT DISCREPANCY IS DIFFERENCE BETWEEN IN-OUT MINUS CHANGE IN STORAGE
 DIVIDED BY THE AVERAGE OF IN AND OUT TIMES 100

 PERCENT DISCREPANCY =          -0.00     PERCENT DISCREPANCY =           0.00






1
  VOLUMETRIC BUDGET FOR ENTIRE MODEL AT END OF TIME STEP    5, STRESS PERIOD  12
  ------------------------------------------------------------------------------

     CUMULATIVE VOLUMES      L**3       RATES FOR THIS TIME STEP      L**3/T
     ------------------                 ------------------------

           IN:                                      IN:
           ---                                      ---
             STORAGE =   126169288.0000               STORAGE =           1.2284
       CONSTANT HEAD =           0.0000         CONSTANT HEAD =           0.0000
               WELLS =           0.0000                 WELLS =           0.0000
     HEAD DEP BOUNDS =     6145331.0000       HEAD DEP BOUNDS =           0.2093
      STREAM LEAKAGE =  1268957696.0000        STREAM LEAKAGE =          43.2764
        UZF RECHARGE =   366372160.0000          UZF RECHARGE =           8.8339
               GW ET =           0.0000                 GW ET =           0.0000
     SURFACE LEAKAGE =           0.0000       SURFACE LEAKAGE =           0.0000

            TOTAL IN =  1767644416.0000              TOTAL IN =          53.5480

          OUT:                                     OUT:
          ----                                     ----
             STORAGE =   459014080.0000               STORAGE =          20.9955
       CONSTANT HEAD =           0.0000         CONSTANT HEAD =           0.0000
               WELLS =   394199936.0000                 WELLS =           0.0000
     HEAD DEP BOUNDS =     7749490.0000       HEAD DEP BOUNDS =           0.2628
      STREAM LEAKAGE =   394007936.0000        STREAM LEAKAGE =          13.1315
        UZF RECHARGE =           0.0000          UZF RECHARGE =           0.0000
               GW ET =   512518784.0000                 GW ET =          19.1339
     SURFACE LEAKAGE =           0.0000       SURFACE LEAKAGE =           0.0000

           TOTAL OUT =  1767490176.0000             TOTAL OUT =          53.5238

            IN - OUT =      154240.0000              IN - OUT =       2.4258E-02

 PERCENT DISCREPANCY =           0.01     PERCENT DISCREPANCY =           0.05






         TIME SUMMARY AT END OF TIME STEP    5 IN STRESS PERIOD   12
                    SECONDS     MINUTES      HOURS       DAYS        YEARS
                    -----------------------------------------------------------
   TIME STEP LENGTH 1.21100E+05  2018.3      33.639      1.4016     3.83743E-03
 STRESS PERIOD TIME 5.04972E+05  8416.2      140.27      5.8446     1.60016E-02
         TOTAL TIME 2.94130E+07 4.90216E+05  8170.3      340.43     0.93204    
1
 
 SOLVING FOR HEAD 
     8 ITERATIONS FOR TIME STEP   6 IN STRESS PERIOD   12

 MAXIMUM HEAD CHANGE FOR EACH ITERATION:

    HEAD CHANGE   HEAD CHANGE   HEAD CHANGE   HEAD CHANGE   HEAD CHANGE
  LAYER,ROW,COL LAYER,ROW,COL LAYER,ROW,COL LAYER,ROW,COL LAYER,ROW,COL
 ----------------------------------------------------------------------
     0.3248E-01    0.9099E-02    0.4395E-02    0.2125E-02    0.1006E-02
  (  1,  6,  5) (  1, 10, 10) (  1, 10, 10) (  1, 10, 10) (  1, 10, 10)
     0.5336E-03    0.2503E-03    0.1328E-03
  (  1, 10, 10) (  1, 15,  5) (  1, 15,  5)


 NO OUTPUT CONTROL FOR STRESS PERIOD   12   TIME STEP    6
 
 SOLVING FOR HEAD 
     8 ITERATIONS FOR TIME STEP   7 IN STRESS PERIOD   12

 MAXIMUM HEAD CHANGE FOR EACH ITERATION:

    HEAD CHANGE   HEAD CHANGE   HEAD CHANGE   HEAD CHANGE   HEAD CHANGE
  LAYER,ROW,COL LAYER,ROW,COL LAYER,ROW,COL LAYER,ROW,COL LAYER,ROW,COL
 ----------------------------------------------------------------------
     0.3399E-01    0.1145E-01    0.5572E-02    0.2664E-02    0.1353E-02
  (  1,  6,  4) (  1, 15,  4) (  1, 15,  4) (  1, 15,  4) (  1, 15,  4)
     0.6353E-03    0.3093E-03    0.1531E-03
  (  1, 15,  4) (  1, 15,  4) (  1, 15,  4)


 NO OUTPUT CONTROL FOR STRESS PERIOD   12   TIME STEP    7
 
 SOLVING FOR HEAD 
     8 ITERATIONS FOR TIME STEP   8 IN STRESS PERIOD   12

 MAXIMUM HEAD CHANGE FOR EACH ITERATION:

    HEAD CHANGE   HEAD CHANGE   HEAD CHANGE   HEAD CHANGE   HEAD CHANGE
  LAYER,ROW,COL LAYER,ROW,COL LAYER,ROW,COL LAYER,ROW,COL LAYER,ROW,COL
 ----------------------------------------------------------------------
     0.3601E-01    0.1250E-01    0.6058E-02    0.2915E-02    0.1435E-02
  (  1,  6,  4) (  1, 15,  4) (  1, 15,  4) (  1, 15,  4) (  1, 15,  4)
     0.6879E-03    0.3379E-03    0.1678E-03
  (  1, 15,  4) (  1, 15,  4) (  1, 15,  4)


 NO OUTPUT CONTROL FOR STRESS PERIOD   12   TIME STEP    8
 
 SOLVING FOR HEAD 
     8 ITERATIONS FOR TIME STEP   9 IN STRESS PERIOD   12

 MAXIMUM HEAD CHANGE FOR EACH ITERATION:

    HEAD CHANGE   HEAD CHANGE   HEAD CHANGE   HEAD CHANGE   HEAD CHANGE
  LAYER,ROW,COL LAYER,ROW,COL LAYER,ROW,COL LAYER,ROW,COL LAYER,ROW,COL
 ----------------------------------------------------------------------
     0.3871E-01    0.1358E-01    0.6573E-02    0.3243E-02    0.1530E-02
  (  1,  7,  4) (  1, 15,  4) (  1, 15,  4) (  1, 15,  4) (  1, 15,  4)
     0.7468E-03    0.3696E-03    0.1842E-03
  (  1, 15,  4) (  1, 15,  4) (  1, 15,  4)


 NO OUTPUT CONTROL FOR STRESS PERIOD   12   TIME STEP    9
 
 SOLVING FOR HEAD 
     8 ITERATIONS FOR TIME STEP  10 IN STRESS PERIOD   12

 MAXIMUM HEAD CHANGE FOR EACH ITERATION:

    HEAD CHANGE   HEAD CHANGE   HEAD CHANGE   HEAD CHANGE   HEAD CHANGE
  LAYER,ROW,COL LAYER,ROW,COL LAYER,ROW,COL LAYER,ROW,COL LAYER,ROW,COL
 ----------------------------------------------------------------------
     0.4196E-01    0.1430E-01    0.6918E-02    0.3322E-02    0.1633E-02
  (  1,  7,  4) (  1, 15,  4) (  1, 15,  4) (  1, 15,  4) (  1, 15,  4)
     0.8113E-03    0.3439E-03    0.1900E-03
  (  1, 15,  4) (  1, 15,  4) (  1, 15,  4)


 OUTPUT CONTROL FOR STRESS PERIOD   12   TIME STEP   10
    PRINT BUDGET
    SAVE BUDGET

  HEAD DEP BOUNDS   PERIOD   12   STEP  10
 BOUNDARY      1   LAYER   1   ROW    13   COL     1   RATE   -0.262742    
 BOUNDARY      2   LAYER   1   ROW    14   COL     9   RATE    0.209420    



 STREAM LISTING     PERIOD     12   STEP       10

 LAYER ROW COL. STREAM  RCH.  FLOW INTO     FLOW TO   FLOW OUT OF   OVRLND.     DIRECT     STREAM       STREAM     STREAM     STREAM   STREAMBED  STREAMBED
                SEG.NO.  NO.  STRM. RCH.    AQUIFER    STRM. RCH.    RUNOFF     PRECIP       ET          HEAD       DEPTH      WIDTH   CONDCTNC.   GRADIENT

   1    1    1     1     1    2.5000E+01  1.0732E+00   2.3927E+01  0.000E+00  0.000E+00  0.000E+00  1.09422E+03  1.172E+00  1.296E+01  5.830E-01  6.137E-01
   1    2    2     1     2    2.3927E+01  3.0749E+00   2.0852E+01  0.000E+00  0.000E+00  0.000E+00  1.08920E+03  1.140E+00  1.253E+01  8.768E-01  1.169E+00
   1    3    3     1     3    2.0852E+01  2.9009E+00   1.7951E+01  0.000E+00  0.000E+00  0.000E+00  1.08351E+03  1.090E+00  1.182E+01  7.092E-01  1.363E+00
   1    3    4     1     4    1.7951E+01  2.4638E+00   1.5487E+01  0.000E+00  0.000E+00  0.000E+00  1.07845E+03  1.044E+00  1.098E+01  6.092E-01  1.348E+00
   1    4    5     2     1    5.4871E+00  2.6610E+00   2.8261E+00  0.000E+00  0.000E+00  0.000E+00  1.07235E+03  4.115E-01  1.200E+01  7.800E-01  1.137E+00
   1    5    6     2     2    2.8261E+00  1.9519E+00   8.7420E-01  0.000E+00  0.000E+00  0.000E+00  1.06676E+03  2.532E-01  1.200E+01  6.000E-01  1.084E+00
   1    6    6     2     3    8.7420E-01  8.7420E-01   0.0000E+00  0.000E+00  0.000E+00  0.000E+00  1.06183E+03  3.633E-02  1.200E+01  6.000E-01  1.012E+00
   1    7    6     2     4    0.0000E+00  0.0000E+00   0.0000E+00  0.000E+00  0.000E+00  0.000E+00  1.05708E+03  0.000E+00  1.200E+01  6.000E-01  1.000E+00
   1    8    6     2     5    0.0000E+00  0.0000E+00   0.0000E+00  0.000E+00  0.000E+00  0.000E+00  1.05236E+03  0.000E+00  1.200E+01  6.000E-01  1.000E+00
   1    3    5     3     1    1.0000E+01  2.8252E+00   7.1748E+00  0.000E+00  0.000E+00  0.000E+00  1.07555E+03  1.909E+00  9.636E+00  7.227E-01  1.955E+00
   1    3    6     3     2    7.1748E+00  1.9260E+00   5.2488E+00  0.000E+00  0.000E+00  0.000E+00  1.07264E+03  1.727E+00  8.909E+00  6.682E-01  1.441E+00
   1    3    7     3     3    5.2488E+00  9.2500E-01   4.3238E+00  0.000E+00  0.000E+00  0.000E+00  1.06987E+03  1.555E+00  8.218E+00  5.547E-01  8.337E-01
   1    4    8     3     4    4.3238E+00  1.5750E+00   2.7488E+00  0.000E+00  0.000E+00  0.000E+00  1.06682E+03  1.364E+00  7.455E+00  6.709E-01  1.174E+00
   1    5    8     3     5    2.7488E+00  1.5790E+00   1.1699E+00  0.000E+00  0.000E+00  0.000E+00  1.06362E+03  1.164E+00  6.655E+00  4.991E-01  1.582E+00
   1    6    8     3     6    1.1699E+00  5.5980E-01   6.1007E-01  0.000E+00  0.000E+00  0.000E+00  1.06158E+03  1.036E+00  6.145E+00  1.844E-01  1.518E+00
   1    5   10     4     1    1.0000E+01  9.0525E-01   9.0947E+00  0.000E+00  0.000E+00  0.000E+00  1.07835E+03  6.210E-01  1.000E+01  2.500E-01  1.207E+00
   1    5    9     4     2    9.0947E+00  1.7835E+00   7.3113E+00  0.000E+00  0.000E+00  0.000E+00  1.07148E+03  5.670E-01  1.000E+01  5.000E-01  1.189E+00
   1    6    8     4     3    7.3113E+00  1.2257E+00   6.0855E+00  0.000E+00  0.000E+00  0.000E+00  1.06368E+03  5.021E-01  1.000E+01  3.500E-01  1.167E+00
   1    6    8     5     1    6.6956E+00  8.2146E-01   5.8742E+00  0.000E+00  0.000E+00  0.000E+00  1.05857E+03  5.709E-01  1.145E+01  4.580E-01  5.979E-01
   1    7    7     5     2    5.8742E+00  1.6448E+00   4.2293E+00  0.000E+00  0.000E+00  0.000E+00  1.05403E+03  5.288E-01  1.004E+01  5.021E-01  1.092E+00
   1    8    7     5     3    4.2293E+00  1.0168E+00   3.2125E+00  0.000E+00  0.000E+00  0.000E+00  1.04973E+03  4.752E-01  8.359E+00  2.926E-01  1.158E+00
   1    8    6     5     4    3.2125E+00  6.0336E-01   2.6092E+00  0.000E+00  0.000E+00  0.000E+00  1.04669E+03  4.360E-01  7.214E+00  1.804E-01  1.115E+00
   1    9    6     6     1    2.6092E+00  1.9428E+00   6.6640E-01  0.000E+00  0.000E+00  0.000E+00  1.04297E+03  2.380E-01  1.200E+01  6.000E-01  1.079E+00
   1   10    7     6     2    6.6640E-01  6.6640E-01   0.0000E+00  0.000E+00  0.000E+00  0.000E+00  1.03821E+03  3.122E-02  1.200E+01  6.000E-01  1.010E+00
   1   11    7     6     3    0.0000E+00  0.0000E+00   0.0000E+00  0.000E+00  0.000E+00  0.000E+00  1.03364E+03  0.000E+00  1.200E+01  6.000E-01  9.873E-01
   1   12    7     6     4    0.0000E+00  0.0000E+00   0.0000E+00  0.000E+00  0.000E+00  0.000E+00  1.02909E+03  0.000E+00  1.200E+01  6.000E-01  2.597E-01
   1   13    7     6     5    0.0000E+00 -7.7598E-01   7.7598E-01  0.000E+00  0.000E+00  0.000E+00  1.02601E+03  1.003E-01  1.200E+01  2.400E-01 -1.078E+00
   1   14    9     7     1    1.5000E+02  2.1104E+00   1.4789E+02  0.000E+00  0.000E+00  0.000E+00  1.03987E+03  2.286E+00  5.529E+01  5.592E+00  1.258E-01
   1   13    8     7     2    1.4789E+02  3.0810E+00   1.4481E+02  0.000E+00  0.000E+00  0.000E+00  1.03477E+03  2.272E+00  5.522E+01  6.144E+00  1.672E-01
   1   13    7     7     3    1.4481E+02  2.4196E+00   1.4239E+02  0.000E+00  0.000E+00  0.000E+00  1.02968E+03  2.257E+00  5.516E+01  5.578E+00  1.446E-01
   1   13    6     8     1    1.4317E+02  7.0684E-01   1.4246E+02  0.000E+00  0.000E+00  0.000E+00  1.02464E+03  2.765E+00  4.010E+01  4.086E+00  5.766E-02
   1   13    5     8     2    1.4246E+02 -2.0591E+00   1.4452E+02  0.000E+00  0.000E+00  0.000E+00  1.01840E+03  2.770E+00  4.017E+01  4.093E+00 -1.677E-01
   1   13    4     8     3    1.4452E+02 -3.7642E+00   1.4828E+02  0.000E+00  0.000E+00  0.000E+00  1.01217E+03  2.791E+00  4.047E+01  4.124E+00 -3.042E-01
   1   13    3     8     4    1.4828E+02 -3.9885E+00   1.5227E+02  0.000E+00  0.000E+00  0.000E+00  1.00594E+03  2.819E+00  4.087E+01  4.165E+00 -3.192E-01
   1   13    2     8     5    1.5227E+02 -2.0188E+00   1.5429E+02  0.000E+00  0.000E+00  0.000E+00  9.99715E+02  2.840E+00  4.118E+01  4.196E+00 -1.604E-01
   1   13    1     8     6    1.5429E+02 -4.8185E-01   1.5477E+02  0.000E+00  0.000E+00  0.000E+00  9.94723E+02  2.848E+00  4.130E+01  2.525E+00 -6.360E-02



 UBDSV3 SAVING "           GW ET" ON UNIT  61 AT TIME STEP 10, STRESS PERIOD  12
 UBDSV3 SAVING "    UZF RECHARGE" ON UNIT  61 AT TIME STEP 10, STRESS PERIOD  12
 UBDSV3 SAVING " SURFACE LEAKAGE" ON UNIT  61 AT TIME STEP 10, STRESS PERIOD  12
 UBDSV3 SAVING "       HORT+DUNN" ON UNIT  61 AT TIME STEP 10, STRESS PERIOD  12
 UBDSV3 SAVING "  STORAGE CHANGE" ON UNIT  61 AT TIME STEP 10, STRESS PERIOD  12


UNSATURATED ZONE PACKAGE VOLUMETRIC BUDGET FOR  TIME STEP    10 STRESS PERIOD   12
  ------------------------------------------------------------------------------



     CUMULATIVE VOLUMES      L**3       RATES FOR THIS TIME STEP      L**3/T
     ------------------                 ------------------------

           IN:                                      IN:
           ---                                      ---
        INFILTRATION =  1525688304.5068          INFILTRATION =           8.4750

          OUT:                                     OUT:
          ----                                     ----
              UZF ET =  2090250758.8936                UZF ET =          34.1064
        UZF RECHARGE =   373969783.5584          UZF RECHARGE =           9.3050

            IN - OUT =  -938532237.9452              IN - OUT =         -34.9364

          STORAGE:                                 STORAGE:
          --------                                 --------
      STORAGE CHANGE =  -938322972.4836        STORAGE CHANGE =         -34.9345

 PERCENT DISCREPANCY IS DIFFERENCE BETWEEN IN-OUT MINUS CHANGE IN STORAGE
 DIVIDED BY THE AVERAGE OF IN AND OUT TIMES 100

 PERCENT DISCREPANCY =          -0.00     PERCENT DISCREPANCY =          -0.00






1
  VOLUMETRIC BUDGET FOR ENTIRE MODEL AT END OF TIME STEP   10, STRESS PERIOD  12
  ------------------------------------------------------------------------------

     CUMULATIVE VOLUMES      L**3       RATES FOR THIS TIME STEP      L**3/T
     ------------------                 ------------------------

           IN:                                      IN:
           ---                                      ---
             STORAGE =   126942560.0000               STORAGE =           0.9498
       CONSTANT HEAD =           0.0000         CONSTANT HEAD =           0.0000
               WELLS =           0.0000                 WELLS =           0.0000
     HEAD DEP BOUNDS =     6315604.5000       HEAD DEP BOUNDS =           0.2094
      STREAM LEAKAGE =  1304172800.0000        STREAM LEAKAGE =          43.3177
        UZF RECHARGE =   373969728.0000          UZF RECHARGE =           9.3050
               GW ET =           0.0000                 GW ET =           0.0000
     SURFACE LEAKAGE =           0.0000       SURFACE LEAKAGE =           0.0000

            TOTAL IN =  1811400704.0000              TOTAL IN =          53.7819

          OUT:                                     OUT:
          ----                                     ----
             STORAGE =   476188320.0000               STORAGE =          21.0036
       CONSTANT HEAD =           0.0000         CONSTANT HEAD =           0.0000
               WELLS =   394199936.0000                 WELLS =           0.0000
     HEAD DEP BOUNDS =     7963198.0000       HEAD DEP BOUNDS =           0.2627
      STREAM LEAKAGE =   404666112.0000        STREAM LEAKAGE =          13.0884
        UZF RECHARGE =           0.0000          UZF RECHARGE =           0.0000
               GW ET =   528213536.0000                 GW ET =          19.4146
     SURFACE LEAKAGE =           0.0000       SURFACE LEAKAGE =           0.0000

           TOTAL OUT =  1811230976.0000             TOTAL OUT =          53.7693

            IN - OUT =      169728.0000              IN - OUT =       1.2604E-02

 PERCENT DISCREPANCY =           0.01     PERCENT DISCREPANCY =           0.02






         TIME SUMMARY AT END OF TIME STEP   10 IN STRESS PERIOD   12
                    SECONDS     MINUTES      HOURS       DAYS        YEARS
                    -----------------------------------------------------------
   TIME STEP LENGTH 1.95033E+05  3250.6      54.176      2.2573     6.18023E-03
 STRESS PERIOD TIME 1.31823E+06  21971.      366.18      15.257     4.17723E-02
         TOTAL TIME 3.02262E+07 5.03770E+05  8396.2      349.84     0.95781    
1
 
 SOLVING FOR HEAD 
     9 ITERATIONS FOR TIME STEP  11 IN STRESS PERIOD   12

 MAXIMUM HEAD CHANGE FOR EACH ITERATION:

    HEAD CHANGE   HEAD CHANGE   HEAD CHANGE   HEAD CHANGE   HEAD CHANGE
  LAYER,ROW,COL LAYER,ROW,COL LAYER,ROW,COL LAYER,ROW,COL LAYER,ROW,COL
 ----------------------------------------------------------------------
     0.4553E-01    0.1537E-01    0.7468E-02    0.3558E-02    0.1710E-02
  (  1,  7,  4) (  1, 15,  4) (  1, 15,  4) (  1, 15,  4) (  1, 15,  4)
     0.8748E-03    0.3747E-03    0.2080E-03    0.1082E-03
  (  1, 15,  4) (  1, 15,  4) (  1, 15,  4) (  1, 15,  4)


 NO OUTPUT CONTROL FOR STRESS PERIOD   12   TIME STEP   11
 
 SOLVING FOR HEAD 
     9 ITERATIONS FOR TIME STEP  12 IN STRESS PERIOD   12

 MAXIMUM HEAD CHANGE FOR EACH ITERATION:

    HEAD CHANGE   HEAD CHANGE   HEAD CHANGE   HEAD CHANGE   HEAD CHANGE
  LAYER,ROW,COL LAYER,ROW,COL LAYER,ROW,COL LAYER,ROW,COL LAYER,ROW,COL
 ----------------------------------------------------------------------
     0.4913E-01    0.1604E-01    0.7674E-02    0.3731E-02    0.1771E-02
  (  1,  7,  4) (  1, 15,  4) (  1, 15,  4) (  1, 15,  4) (  1, 15,  4)
     0.8665E-03    0.3928E-03    0.2059E-03    0.1034E-03
  (  1, 15,  4) (  1, 15,  4) (  1, 10, 10) (  1, 15,  4)


 NO OUTPUT CONTROL FOR STRESS PERIOD   12   TIME STEP   12
 
 SOLVING FOR HEAD 
     9 ITERATIONS FOR TIME STEP  13 IN STRESS PERIOD   12

 MAXIMUM HEAD CHANGE FOR EACH ITERATION:

    HEAD CHANGE   HEAD CHANGE   HEAD CHANGE   HEAD CHANGE   HEAD CHANGE
  LAYER,ROW,COL LAYER,ROW,COL LAYER,ROW,COL LAYER,ROW,COL LAYER,ROW,COL
 ----------------------------------------------------------------------
     0.5299E-01    0.1722E-01    0.8189E-02    0.3970E-02    0.1919E-02
  (  1,  7,  4) (  1, 15,  4) (  1, 15,  4) (  1, 15,  4) (  1, 15,  4)
     0.8664E-03    0.4146E-03    0.2437E-03    0.1290E-03
  (  1, 15,  4) (  1, 15,  4) (  1, 15,  4) (  1, 15,  4)


 NO OUTPUT CONTROL FOR STRESS PERIOD   12   TIME STEP   13
 
 SOLVING FOR HEAD 
     8 ITERATIONS FOR TIME STEP  14 IN STRESS PERIOD   12

 MAXIMUM HEAD CHANGE FOR EACH ITERATION:

    HEAD CHANGE   HEAD CHANGE   HEAD CHANGE   HEAD CHANGE   HEAD CHANGE
  LAYER,ROW,COL LAYER,ROW,COL LAYER,ROW,COL LAYER,ROW,COL LAYER,ROW,COL
 ----------------------------------------------------------------------
     0.5697E-01    0.1784E-01    0.8521E-02    0.4092E-02    0.1968E-02
  (  1,  8,  4) (  1, 15,  4) (  1, 15,  4) (  1, 15,  4) (  1, 15,  4)
     0.9242E-03    0.4500E-03    0.1785E-03
  (  1, 15,  4) (  1, 15,  4) (  1, 15,  4)


 NO OUTPUT CONTROL FOR STRESS PERIOD   12   TIME STEP   14
 
 SOLVING FOR HEAD 
     9 ITERATIONS FOR TIME STEP  15 IN STRESS PERIOD   12

 MAXIMUM HEAD CHANGE FOR EACH ITERATION:

    HEAD CHANGE   HEAD CHANGE   HEAD CHANGE   HEAD CHANGE   HEAD CHANGE
  LAYER,ROW,COL LAYER,ROW,COL LAYER,ROW,COL LAYER,ROW,COL LAYER,ROW,COL
 ----------------------------------------------------------------------
     0.6182E-01    0.2330E-01    0.1124E-01    0.5419E-02    0.2644E-02
  (  1,  8,  4) (  1, 15,  3) (  1, 15,  3) (  1, 15,  3) (  1, 15,  3)
     0.1260E-02    0.5934E-03    0.3138E-03    0.1115E-03
  (  1, 15,  3) (  1, 15,  3) (  1, 15,  3) (  1, 15,  3)


 OUTPUT CONTROL FOR STRESS PERIOD   12   TIME STEP   15
    PRINT BUDGET
    PRINT HEAD FOR ALL LAYERS
    SAVE HEAD FOR ALL LAYERS
    SAVE BUDGET

  HEAD DEP BOUNDS   PERIOD   12   STEP  15
 BOUNDARY      1   LAYER   1   ROW    13   COL     1   RATE   -0.262630    
 BOUNDARY      2   LAYER   1   ROW    14   COL     9   RATE    0.209593    



 STREAM LISTING     PERIOD     12   STEP       15

 LAYER ROW COL. STREAM  RCH.  FLOW INTO     FLOW TO   FLOW OUT OF   OVRLND.     DIRECT     STREAM       STREAM     STREAM     STREAM   STREAMBED  STREAMBED
                SEG.NO.  NO.  STRM. RCH.    AQUIFER    STRM. RCH.    RUNOFF     PRECIP       ET          HEAD       DEPTH      WIDTH   CONDCTNC.   GRADIENT

   1    1    1     1     1    2.5000E+01  1.0767E+00   2.3923E+01  0.000E+00  0.000E+00  0.000E+00  1.09422E+03  1.172E+00  1.295E+01  5.830E-01  6.157E-01
   1    2    2     1     2    2.3923E+01  3.0800E+00   2.0843E+01  0.000E+00  0.000E+00  0.000E+00  1.08920E+03  1.140E+00  1.252E+01  8.767E-01  1.171E+00
   1    3    3     1     3    2.0843E+01  2.9002E+00   1.7943E+01  0.000E+00  0.000E+00  0.000E+00  1.08351E+03  1.090E+00  1.182E+01  7.090E-01  1.363E+00
   1    3    4     1     4    1.7943E+01  2.4632E+00   1.5480E+01  0.000E+00  0.000E+00  0.000E+00  1.07845E+03  1.044E+00  1.097E+01  6.091E-01  1.348E+00
   1    4    5     2     1    5.4799E+00  2.6607E+00   2.8193E+00  0.000E+00  0.000E+00  0.000E+00  1.07235E+03  4.111E-01  1.200E+01  7.800E-01  1.137E+00
   1    5    6     2     2    2.8193E+00  1.9516E+00   8.6768E-01  0.000E+00  0.000E+00  0.000E+00  1.06676E+03  2.527E-01  1.200E+01  6.000E-01  1.084E+00
   1    6    6     2     3    8.6768E-01  8.6768E-01   0.0000E+00  0.000E+00  0.000E+00  0.000E+00  1.06183E+03  3.617E-02  1.200E+01  6.000E-01  1.012E+00
   1    7    6     2     4    0.0000E+00  0.0000E+00   0.0000E+00  0.000E+00  0.000E+00  0.000E+00  1.05708E+03  0.000E+00  1.200E+01  6.000E-01  1.000E+00
   1    8    6     2     5    0.0000E+00  0.0000E+00   0.0000E+00  0.000E+00  0.000E+00  0.000E+00  1.05236E+03  0.000E+00  1.200E+01  6.000E-01  1.000E+00
   1    3    5     3     1    1.0000E+01  2.8252E+00   7.1748E+00  0.000E+00  0.000E+00  0.000E+00  1.07555E+03  1.909E+00  9.636E+00  7.227E-01  1.955E+00
   1    3    6     3     2    7.1748E+00  1.9444E+00   5.2304E+00  0.000E+00  0.000E+00  0.000E+00  1.07264E+03  1.727E+00  8.909E+00  6.682E-01  1.455E+00
   1    3    7     3     3    5.2304E+00  9.3575E-01   4.2947E+00  0.000E+00  0.000E+00  0.000E+00  1.06987E+03  1.555E+00  8.218E+00  5.547E-01  8.434E-01
   1    4    8     3     4    4.2947E+00  1.5800E+00   2.7147E+00  0.000E+00  0.000E+00  0.000E+00  1.06682E+03  1.364E+00  7.455E+00  6.709E-01  1.178E+00
   1    5    8     3     5    2.7147E+00  1.5790E+00   1.1357E+00  0.000E+00  0.000E+00  0.000E+00  1.06362E+03  1.164E+00  6.655E+00  4.991E-01  1.582E+00
   1    6    8     3     6    1.1357E+00  5.5980E-01   5.7590E-01  0.000E+00  0.000E+00  0.000E+00  1.06158E+03  1.036E+00  6.145E+00  1.844E-01  1.518E+00
   1    5   10     4     1    1.0000E+01  9.0525E-01   9.0947E+00  0.000E+00  0.000E+00  0.000E+00  1.07835E+03  6.210E-01  1.000E+01  2.500E-01  1.207E+00
   1    5    9     4     2    9.0947E+00  1.7835E+00   7.3113E+00  0.000E+00  0.000E+00  0.000E+00  1.07148E+03  5.670E-01  1.000E+01  5.000E-01  1.189E+00
   1    6    8     4     3    7.3113E+00  1.2257E+00   6.0855E+00  0.000E+00  0.000E+00  0.000E+00  1.06368E+03  5.021E-01  1.000E+01  3.500E-01  1.167E+00
   1    6    8     5     1    6.6614E+00  8.1260E-01   5.8488E+00  0.000E+00  0.000E+00  0.000E+00  1.05857E+03  5.699E-01  1.142E+01  4.567E-01  5.932E-01
   1    7    7     5     2    5.8488E+00  1.6278E+00   4.2210E+00  0.000E+00  0.000E+00  0.000E+00  1.05403E+03  5.282E-01  1.002E+01  5.011E-01  1.083E+00
   1    8    7     5     3    4.2210E+00  1.0154E+00   3.2056E+00  0.000E+00  0.000E+00  0.000E+00  1.04972E+03  4.748E-01  8.349E+00  2.922E-01  1.158E+00
   1    8    6     5     4    3.2056E+00  5.8972E-01   2.6159E+00  0.000E+00  0.000E+00  0.000E+00  1.04669E+03  4.360E-01  7.214E+00  1.804E-01  1.090E+00
   1    9    6     6     1    2.6159E+00  1.9431E+00   6.7276E-01  0.000E+00  0.000E+00  0.000E+00  1.04297E+03  2.385E-01  1.200E+01  6.000E-01  1.080E+00
   1   10    7     6     2    6.7276E-01  6.7276E-01   0.0000E+00  0.000E+00  0.000E+00  0.000E+00  1.03821E+03  3.140E-02  1.200E+01  6.000E-01  1.010E+00
   1   11    7     6     3    0.0000E+00  0.0000E+00   0.0000E+00  0.000E+00  0.000E+00  0.000E+00  1.03364E+03  0.000E+00  1.200E+01  6.000E-01  9.834E-01
   1   12    7     6     4    0.0000E+00  0.0000E+00   0.0000E+00  0.000E+00  0.000E+00  0.000E+00  1.02909E+03  0.000E+00  1.200E+01  6.000E-01  2.605E-01
   1   13    7     6     5    0.0000E+00 -7.7560E-01   7.7560E-01  0.000E+00  0.000E+00  0.000E+00  1.02601E+03  1.003E-01  1.200E+01  2.400E-01 -1.077E+00
   1   14    9     7     1    1.5000E+02  2.1355E+00   1.4786E+02  0.000E+00  0.000E+00  0.000E+00  1.03987E+03  2.286E+00  5.529E+01  5.592E+00  1.273E-01
   1   13    8     7     2    1.4786E+02  3.1056E+00   1.4476E+02  0.000E+00  0.000E+00  0.000E+00  1.03477E+03  2.272E+00  5.522E+01  6.144E+00  1.685E-01
   1   13    7     7     3    1.4476E+02  2.4270E+00   1.4233E+02  0.000E+00  0.000E+00  0.000E+00  1.02968E+03  2.257E+00  5.516E+01  5.578E+00  1.450E-01
   1   13    6     8     1    1.4311E+02  7.1015E-01   1.4240E+02  0.000E+00  0.000E+00  0.000E+00  1.02464E+03  2.765E+00  4.009E+01  4.086E+00  5.794E-02
   1   13    5     8     2    1.4240E+02 -2.0518E+00   1.4445E+02  0.000E+00  0.000E+00  0.000E+00  1.01839E+03  2.770E+00  4.016E+01  4.093E+00 -1.671E-01
   1   13    4     8     3    1.4445E+02 -3.7628E+00   1.4821E+02  0.000E+00  0.000E+00  0.000E+00  1.01217E+03  2.791E+00  4.047E+01  4.124E+00 -3.042E-01
   1   13    3     8     4    1.4821E+02 -3.9792E+00   1.5219E+02  0.000E+00  0.000E+00  0.000E+00  1.00594E+03  2.818E+00  4.086E+01  4.164E+00 -3.185E-01
   1   13    2     8     5    1.5219E+02 -1.9972E+00   1.5419E+02  0.000E+00  0.000E+00  0.000E+00  9.99714E+02  2.839E+00  4.117E+01  4.195E+00 -1.587E-01
   1   13    1     8     6    1.5419E+02 -4.7612E-01   1.5466E+02  0.000E+00  0.000E+00  0.000E+00  9.94723E+02  2.848E+00  4.129E+01  2.525E+00 -6.286E-02



 UBDSV3 SAVING "           GW ET" ON UNIT  61 AT TIME STEP 15, STRESS PERIOD  12
 UBDSV3 SAVING "    UZF RECHARGE" ON UNIT  61 AT TIME STEP 15, STRESS PERIOD  12
 UBDSV3 SAVING " SURFACE LEAKAGE" ON UNIT  61 AT TIME STEP 15, STRESS PERIOD  12
 UBDSV3 SAVING "       HORT+DUNN" ON UNIT  61 AT TIME STEP 15, STRESS PERIOD  12
 UBDSV3 SAVING "  STORAGE CHANGE" ON UNIT  61 AT TIME STEP 15, STRESS PERIOD  12


UNSATURATED ZONE PACKAGE VOLUMETRIC BUDGET FOR  TIME STEP    15 STRESS PERIOD   12
  ------------------------------------------------------------------------------



     CUMULATIVE VOLUMES      L**3       RATES FOR THIS TIME STEP      L**3/T
     ------------------                 ------------------------

           IN:                                      IN:
           ---                                      ---
        INFILTRATION =  1536788574.2900          INFILTRATION =           8.4750

          OUT:                                     OUT:
          ----                                     ----
              UZF ET =  2130440880.2432                UZF ET =          29.5380
        UZF RECHARGE =   386764908.8748          UZF RECHARGE =          11.2564

            IN - OUT =  -980417214.8279              IN - OUT =         -32.3194

          STORAGE:                                 STORAGE:
          --------                                 --------
      STORAGE CHANGE =  -980288831.9365        STORAGE CHANGE =         -32.4173

 PERCENT DISCREPANCY IS DIFFERENCE BETWEEN IN-OUT MINUS CHANGE IN STORAGE
 DIVIDED BY THE AVERAGE OF IN AND OUT TIMES 100

 PERCENT DISCREPANCY =          -0.00     PERCENT DISCREPANCY =           0.24






1
              HEAD IN LAYER   1 AT END OF TIME STEP  15 IN STRESS PERIOD   12
  ---------------------------------------------------------------------------

           1       2       3       4       5       6       7       8       9      10
 ...................................................................................
   1  1092.37 1088.62 6999.00 6999.00 6999.00 6999.00 6999.00 6999.00 6999.00 6999.00
   2  1089.01 1085.69 1079.29 6999.00 6999.00 1073.63 1072.54 1070.97 6999.00 6999.00
   3  6999.00 1077.38 1074.53 1070.40 1070.89 1069.73 1068.19 1067.88 6999.00 6999.00
   4  1069.51 1068.75 1067.10 1063.68 1062.51 1061.22 1061.78 1064.46 1063.91 6999.00
   5  1065.40 1061.88 1059.39 1057.54 1057.25 1057.77 1057.60 1059.59 1063.01 1065.39
   6  1060.65 1056.02 1053.11 1051.72 1052.00 1053.32 1054.52 1056.79 1059.55 1063.66
   7  1056.94 1050.38 1047.40 1046.23 1046.83 1048.45 1050.78 1053.10 1054.36 6999.00
   8  6999.00 1042.92 1041.40 1040.73 1041.58 1043.42 1045.19 1047.54 1049.31 6999.00
   9  6999.00 1035.92 1035.35 1035.29 1036.46 1038.47 1039.35 1041.08 1043.88 6999.00
  10  6999.00 1028.78 1029.18 1030.18 1031.62 1033.35 1034.61 1036.48 1040.18 1045.30
  11  6999.00 1019.85 1021.63 1025.14 1027.16 1029.22 1030.69 1032.96 1036.39 6999.00
  12  1001.21 1008.88 1014.17 1019.07 1022.71 1025.93 1028.31 1031.01 1034.88 6999.00
  13   994.91 1000.19 1006.90 1013.08 1018.90 1024.47 1029.24 1034.27 1036.38 6999.00
  14  6999.00 1005.79 1011.36 1016.09 1021.14 1025.87 1030.11 1035.21 1039.48 6999.00
  15  6999.00 6999.00 1018.96 1022.40 1026.57 1029.77 6999.00 6999.00 6999.00 6999.00

 HEAD WILL BE SAVED ON UNIT   58 AT END OF TIME STEP   15, STRESS PERIOD   12
1
  VOLUMETRIC BUDGET FOR ENTIRE MODEL AT END OF TIME STEP   15, STRESS PERIOD  12
  ------------------------------------------------------------------------------

     CUMULATIVE VOLUMES      L**3       RATES FOR THIS TIME STEP      L**3/T
     ------------------                 ------------------------

           IN:                                      IN:
           ---                                      ---
             STORAGE =   128127880.0000               STORAGE =           0.8579
       CONSTANT HEAD =           0.0000         CONSTANT HEAD =           0.0000
               WELLS =           0.0000                 WELLS =           0.0000
     HEAD DEP BOUNDS =     6590051.5000       HEAD DEP BOUNDS =           0.2096
      STREAM LEAKAGE =  1360961664.0000        STREAM LEAKAGE =          43.3782
        UZF RECHARGE =   386764864.0000          UZF RECHARGE =          11.2564
               GW ET =           0.0000                 GW ET =           0.0000
     SURFACE LEAKAGE =           0.0000       SURFACE LEAKAGE =           0.0000

            TOTAL IN =  1882444544.0000              TOTAL IN =          55.7021

          OUT:                                     OUT:
          ----                                     ----
             STORAGE =   504144896.0000               STORAGE =          22.7809
       CONSTANT HEAD =           0.0000         CONSTANT HEAD =           0.0000
               WELLS =   394199936.0000                 WELLS =           0.0000
     HEAD DEP BOUNDS =     8307236.0000       HEAD DEP BOUNDS =           0.2626
      STREAM LEAKAGE =   421769216.0000        STREAM LEAKAGE =          13.0428
        UZF RECHARGE =           0.0000          UZF RECHARGE =           0.0000
               GW ET =   553868352.0000                 GW ET =          19.6313
     SURFACE LEAKAGE =           0.0000       SURFACE LEAKAGE =           0.0000

           TOTAL OUT =  1882289664.0000             TOTAL OUT =          55.7176

            IN - OUT =      154880.0000              IN - OUT =      -1.5480E-02

 PERCENT DISCREPANCY =           0.01     PERCENT DISCREPANCY =          -0.03






         TIME SUMMARY AT END OF TIME STEP   15 IN STRESS PERIOD   12
                    SECONDS     MINUTES      HOURS       DAYS        YEARS
                    -----------------------------------------------------------
   TIME STEP LENGTH 3.14103E+05  5235.0      87.251      3.6354     9.95332E-03
 STRESS PERIOD TIME 2.62800E+06  43800.      730.00      30.417     8.32763E-02
         TOTAL TIME 3.15360E+07 5.25600E+05  8760.0      365.00     0.99932    
1

 Run end date and time (yyyy/mm/dd hh:mm:ss): 2017/02/02 12:58:55
 Elapsed run time:  6.691 Seconds

